* This is the potentiometer
*
*  1---/\/\/\/---2
*        |
*        3
*
.SUBCKT supply 1 2 3
V01 1 3 {Vp*1}
V02 3 2 {Vn*1}
.ENDS


