*Component Created by Javier Petrucci and Agustin Gullino
* jpetrucc@itba.edu.ar / agullino@itba.edu.ar
*

.SUBCKT vcc 1

V1 1 0 {V}

.ENDS vcc