* [Custon Components]

* Lista editada para TCLib
* AG JP 2022 / 2023

.MODEL 1N4148 D(Is=2.52n Rs=.568 N=1.752 Cjo=4p M=.4 tt=20n Iave=200m Vpk=75 mfg=OnSemi type=silicon)
.MODEL 1N4007 D(Is=90p Rs=40m Cjo=30p N=1.4 TT=5u Iave=1 Vpk=1000 mfg=Diodes_Inc. type=silicon)
.MODEL MUR460 D(Is=149n Rs=.0384 N=2 EG=1.285 XTI=.5 BV=800 IBV=1e-05 Cjo=126.4p Vj=1.34 M=.52 tt=44.4n Iave=4 Vpk=600 mfg=GI type=silicon)
.MODEL 1N750 D(Is=.88f Rs=.25 Cjo=175p M=.55 nbv=1.7 bv=4.7 Vj=.75 Isr=1.86n Nr=2 Ibv=20.245m Ibvl=1.96m Nbvl=15 Tbv1=-21.3u Vpk=4.7 mfg=OnSemi type=Zener)
.MODEL 1N4731 D(Is=837.3E-18 Rs=.1211 Ikf=0 N=1 Xti=3 Eg=1.11 Cjo=220p M=.389 Vj=.75 Fc=.5 Isr=2.56n Nr=2 Bv=4.3 Ibv=60.167m Nbv=1.8815 Ibvl=6.0358m Nbvl=12.57 Tbv1=-232.558u type=Zener)

* [Custon Components]