* [Custon Components]

* Lista editada para TCLib
* AG JP 2022 / 2023

.model IRF740 VDMOS(KP=10 RD=0.1 RG=5 VTO=5 LAMBDA=7m CGDMAX=1150p CGDMIN=15p CGS=1300p TT=533n IS=2.41E-09 N=1.401 RB=0.013053 m=0.452 Vj=0.36 Cjo=1424.39pF RDS=1Meg mtriode=0.2 Theta=0.5 bv=400 nbv=10 mfg=STmicro Qg=35n Ron=0.48 Vds=400 ksubthres=.15)
.MODEL IRF530 VDMOS(Rg=3 Vto=4 Rd=50m Rs=90u Rb=60m Kp=400 lambda=.01 Cgdmax=1n Cgdmin=.26n Cgs=.2n Cjo=.4n Is=52p ksubthres=.1 mfg=International_Rectifier Vds=100 Ron=160m Qg=26n)
.MODEL 2N7002 VDMOS(Rg=3 Vto=1.6 Rd=0 Rs=.75 Rb=.14 Kp=.17 mtriode=1.25 Cgdmax=80p Cgdmin=12p Cgs=50p Cjo=50p Is=.04p ksubthres=.1 mfg=Fairchild Vds=60 Ron=2 Qg=1.5n)

.MODEL IRF9640 VDMOS(pchan Rg=3 Vto=-3.5 Rd=.15 Rs=.15 Rb=.15 Kp=8 lambda=.01 mtriode=.5 Cgdmax=1.5n Cgdmin=.07n Cgs=1n Cjo=1n Is=38p ksubthres=.1 mfg=International_Rectifier Vds=-200 Ron=.5 Qg=44n)
.MODEL BS250P VDMOS(pchan Rg=160 VTO=-3.193 RS=2.041 RD=0.697 IS=2E-13 KP=0.277 Cjo=105p LAMBDA=1.2E-2 RB=0.309 Rds=1.2E8 Cgdmax=57p Cgdmin=5p CGS=47p TT=86.56n BV=45 IBV=10u)

* [Custon Components]