* [Custon Components]

* Lista editada para TCLib
* AG JP 2022 / 2023

.model IRF530 VDMOS(Rg=3 Vto=4 Rd=50m Rs=90u Rb=60m Kp=400 lambda=.01 Cgdmax=1n Cgdmin=.26n Cgs=.2n Cjo=.4n Is=52p ksubthres=.1 mfg=International_Rectifier Vds=100 Ron=160m Qg=26n)
.model IRF530bbb VDMOS(Rg=3 Vto=4 Rd=50m Rs=12m Rb=60m Kp=5 lambda=.01 Cgdmax=1n Cgdmin=.26n Cgs=.2n Cjo=.4n Is=52p ksubthres=.1 mfg=International_Rectifier Vds=100 Ron=160m Qg=26n)
.model 2N7002 VDMOS(Rg=3 Vto=1.6 Rd=0 Rs=.75 Rb=.14 Kp=.17 mtriode=1.25 Cgdmax=80p Cgdmin=12p Cgs=50p Cjo=50p Is=.04p ksubthres=.1 mfg=Fairchild Vds=60 Ron=2 Qg=1.5n)

.model IRF9640 VDMOS(pchan Rg=3 Vto=-3.5 Rd=.15 Rs=.15 Rb=.15 Kp=8 lambda=.01 mtriode=.5 Cgdmax=1.5n Cgdmin=.07n Cgs=1n Cjo=1n Is=38p ksubthres=.1 mfg=International_Rectifier Vds=-200 Ron=.5 Qg=44n)
.MODEL BS250P VDMOS(pchan Rg=160 VTO=-3.193 RS=2.041 RD=0.697 IS=2E-13 KP=0.277 Cjo=105p PB=1 LAMBDA=1.2E-2 RB=0.309 Rds=1.2E8 Cgdmax=57p Cgdmin=5p CGS=47p TT=86.56n BV=45 IBV=10u)


*******
*Otros
*******

* [Custon Components]