* Copyright © 2000 Linear Technology Corporation.   All rights reserved.
*
*
.model 2N2222 NPN(IS=1E-14 VAF=100
+   BF=200 IKF=0.3 XTB=1.5 BR=3
+   CJC=8E-12 CJE=25E-12 TR=100E-9 TF=400E-12
+   ITF=1 VTF=2 XTF=3 RB=10 RC=.3 RE=.2 Vceo=30 Icrating=800m  mfg=NXP)

.model 2N2907 PNP(IS=1E-14 VAF=120
+   BF=250 IKF=0.3 XTB=1.5 BR=3
+   CJC=8E-12 CJE=30E-12 TR=100E-9 TF=400E-12
+   ITF=1 VTF=2 XTF=3 RB=10 RC=.3 RE=.2 Vceo=40 Icrating=600m mfg=NXP)

.model 2N3904 NPN(IS=1E-14 VAF=100
+  Bf=300 IKF=0.4 XTB=1.5 BR=4
+  CJC=4E-12  CJE=8E-12 RB=20 RC=0.1 RE=0.1
+  TR=250E-9  TF=350E-12 ITF=1 VTF=2 XTF=3 Vceo=40 Icrating=200m mfg=NXP)

.model 2N3906 PNP(IS=1E-14 VAF=100
+  BF=200 IKF=0.4 XTB=1.5 BR=4
+  CJC=4.5E-12 CJE=10E-12 RB=20 RC=0.1 RE=0.1
+  TR=250E-9   TF=350E-12 ITF=1 VTF=2 XTF=3 Vceo=40  Icrating=200m mfg=NXP)

.model FZT849 NPN(IS=5.8591E-13 NF=0.9919 BF=230 IKF=18 VAF=90
+ ISE=2.0067E-13 NE=1.4 NR=0.9908 BR=180 IKR=6.8
+ VAR=20 ISC=5.3E-13 NC=1.46 RB=0.023 RE=0.0223
+ RC=0.015 CJC=200E-12 MJC=0.3006 VJC=0.3532
+ CJE=1.21E-9 TF=1.07E-9 TR=9.3E-9 Vceo=30 Icrating=7 mfg=Zetex) ; (C) 1993 ZETEX PLC, Last revision 14/3/97

.model ZTX849 ako:FZT849 NPN(Vceo=30 Icrating=7 mfg=Zetex)

.model ZTX1048A NPN(IS=13.73E-13 NF=1.0 BF=550 IKF=8.0 VAF=120
+ ISE=2.6E-13 NE=1.38 NR=1.0 BR=300 IKR=6 VAR=15
+ ISC=1.6E-12 NC=1.4 RB=0.1 RE=0.022 RC=0.010
+ CJC=136E-12 CJE=559.1E-12 MJC=0.267 MJE=0.299
+ VJC=0.420 VJE=0.533 TF=600E-12 TR=3E-9 Vceo=17.5 Icrating=5 mfg=Zetex) ; (C) 1994 ZETEX PLC, Last revision 20/01/95

.model 2N4124   NPN(Is=6.734f Xti=3 Eg=1.11 Vaf=74.03 Bf=495 Ne=1.28 Ise=6.734f Ikf=69.35m Xtb=1.5 Br=.7214 Nc=2 Isc=0 Ikr=0 Rc=1 Cjc=3.638p
+ Mjc=.3085 Vjc=.75 Fc=.5 Cje=4.493p Mje=.2593 Vje=.75 Tr=238.3n Tf=301.3p Itf=.4 Vtf=4 Xtf=2 Rb=10 Vceo=25 Icrating=200m mfg=Fairchild)

.model 2N4126   PNP(Is=1.41f Xti=3 Eg=1.11 Vaf=18.7 Bf=203.7 Ne=1.5 Ise=0 Ikf=80m Xtb=1.5 Br=4.924 Nc=2 Isc=0 Ikr=0 Rc=2.5 Cjc=9.728p
+ Mjc=.5776 Vjc=.75 Fc=.5 Cje=8.063p Mje=.3677 Vje=.75 Tr=33.23n Tf=179.3p Itf=.4 Vtf=4 Xtf=6 Rb=10 Rb=10 Vceo=25 Icrating=200m mfg=Fairchild)

.model 2N3391A  NPN(Is=12.03f Xti=3 Eg=1.11 Vaf=37.37 Bf=427.8 Ne=1.971 Ise=2.953p Ikf=.1072 Xtb=1.5 Br=4.379 Nc=2 Isc=0 Ikr=0 Rc=1 Cjc=5.777p
+ Mjc=.3199 Vjc=.75 Fc=.5 Cje=8.307p Mje=.384 Vje=.75 Tr=701.7p Tf=385.4p Itf=.17 Vtf=3 Xtf=8 Rb=10 Vceo=25 Icrating=500m mfg=Fairchild)

.model 2N5089   NPN(Is=5.911f Xti=3 Eg=1.11 Vaf=62.37 Bf=1.434K Ne=1.421 Ise=5.911f Ikf=15.4m Xtb=1.5 Br=1.262 Nc=2 Isc=0 Ikr=0 Rc=1.61 Cjc=4.017p
+ Mjc=.3174 Vjc=.75 Fc=.5 Cje=4.973p Mje=.4146 Vje=.75 Tr=4.671n Tf=822.3p Itf=.35 Vtf=4 Xtf=7 Rb=10 Vceo=25 Icrating=100m mfg=Fairchild)

.model 2N5210   NPN(Is=5.911f Xti=3 Eg=1.11 Vaf=62.37 Bf=809.9 Ne=1.358 Ise=5.911f Ikf=14.26m Xtb=1.5 Br=1.287 Nc=2 Isc=0 Ikr=0 Rc=1.61 Cjc=4.017p
+ Mjc=.3174 Vjc=.75 Fc=.5 Cje=4.973p Mje=.4146 Vje=.75 Tr=4.68n Tf=820.9p Itf=.35 Vtf=4 Xtf=7 Rb=10 Vceo=50 Icrating=100m mfg=Fairchild)

.model 2N5087   PNP(Is=6.734f Xti=3 Eg=1.11 Vaf=45.7 Bf=254.1 Ne=1.741 Ise=6.734f Ikf=.1962 Xtb=1.5 Br=2.683 Nc=2 Isc=0 Ikr=0 Rc=1.67 Cjc=6.2p
+ Mjc=.301 Vjc=.75 Fc=.5 Cje=7.5p Mje=.2861 Vje=.75 Tr=10.1n Tf=467.8p Itf=.17 Vtf=5 Xtf=8 Rb=10 Vceo=50 Icrating=100m mfg=Fairchild)

.model 2N2219A  NPN(Is=14.34f Xti=3 Eg=1.11 Vaf=74.03 Bf=255.9 Ne=1.307 Ise=14.34f Ikf=.2847 Xtb=1.5 Br=6.092 Nc=2 Isc=0 Ikr=0 Rc=1 Cjc=7.306p
+ Mjc=.3416 Vjc=.75 Fc=.5 Cje=22.01p Mje=.377 Vje=.75 Tr=46.91n Tf=411.1p Itf=.6 Vtf=1.7 Xtf=3 Rb=10 Vceo=40 Icrating=800m mfg=NXP)

.model 2N2905A  PNP(Is=650.6E-18 Xti=3 Eg=1.11 Vaf=115.7 Bf=231.7 Ne=1.829 Ise=54.81f Ikf=1.079 Xtb=1.5 Br=3.563 Nc=2 Isc=0 Ikr=0 Rc=.715 Cjc=14.76p
+ Mjc=.5383 Vjc=.75 Fc=.5 Cje=19.82p Mje=.3357 Vje=.75 Tr=111.3n Tf=603.7p Itf=.65 Vtf=5 Xtf=1.7 Rb=10 Vceo=60 Icrating=600m mfg=NXP)

.model 2N4401   NPN(Is=26.03f Xti=3 Eg=1.11 Vaf=90.7 Bf=4.292K Ne=1.244 Ise=26.03f Ikf=.2061 Xtb=1.5 Br=1.01 Nc=2 Isc=0 Ikr=0 Rc=.5 Cjc=11.01p
+ Mjc=.3763 Vjc=.75 Fc=.5 Cje=24.07p Mje=.3641 Vje=.75 Tr=233.7n Tf=466.5p Itf=0 Vtf=0 Xtf=0 Rb=10 Vceo=40 Icrating=600m mfg=Fairchild)

.model 2N4403   PNP(Is=650.6E-18 Xti=3 Eg=1.11 Vaf=115.7 Bf=216.2 Ne=1.829 Ise=58.72f Ikf=1.079 Xtb=1.5 Br=3.578 Nc=2 Isc=0 Ikr=0 Rc=.715 Cjc=14.76p
+ Mjc=.5383 Vjc=.75 Fc=.5 Cje=19.82p Mje=.3357 Vje=.75 Tr=111.6n Tf=603.7p Itf=.65 Vtf=5 Xtf=1.7 Rb=10 Vceo=40 Icrating=600m mfg=Fairchild)

.model 2N5550   NPN(Is=2.511f Xti=3 Eg=1.11 Vaf=100 Bf=213.4 Ne=1.241 Ise=2.511f Ikf=.3495 Xtb=1.5 Br=3.24 Nc=2 Isc=0 Ikr=0 Rc=1 Cjc=4.883p
+ Mjc=.3047 Vjc=.75 Fc=.5 Cje=18.79p Mje=.3416 Vje=.75 Tr=1.212n Tf=560.1p Itf=50m Vtf=5 Xtf=8 Rb=10 Vceo=150 Icrating=600m mfg=Fairchild)

.model 2N5401   PNP(Is=21.48f Xti=3 Eg=1.11 Vaf=100 Bf=132.1 Ne=1.375 Ise=21.48f Ikf=.1848 Xtb=1.5 Br=3.661 Nc=2 Isc=0 Ikr=0 Rc=1.6 Cjc=17.63p
+ Mjc=.5312 Vjc=.75 Fc=.5 Cje=73.39p Mje=.3777 Vje=.75 Tr=1.476n Tf=641.9p Itf=0 Vtf=0 Xtf=0 Rb=10 Vceo=150 Icrating=600m mfg=Fairchild)

.model 2N2369   NPN(Is=44.14f Xti=3 Eg=1.11 Vaf=100 Bf=78.32 Ne=1.389 Ise=91.95f Ikf=.3498 Xtb=1.5 Br=12.69m Nc=2 Isc=0 Ikr=0 Rc=.6 Cjc=2.83p
+ Mjc=86.19m Vjc=.75 Fc=.5 Cje=4.5p Mje=.2418 Vje=.75 Tr=1.073u Tf=227.6p Itf=.3 Vtf=4 Xtf=4 Rb=10 Vceo=15 Icrating=200m mfg=NXP)

.model 2N5769   NPN(Is=44.14f Xti=3 Eg=1.11 Vaf=100 Bf=78.32 Ne=1.389 Ise=91.95f Ikf=.3498 Xtb=1.5 Br=12.69m Nc=2 Isc=0 Ikr=0 Rc=.6 Cjc=2.83p
+ Mjc=86.19m Vjc=.75 Fc=.5 Cje=4.5p Mje=.2418 Vje=.75 Tr=1.073u Tf=227.6p Itf=.3 Vtf=4 Xtf=4 Rb=10 Vceo=15 Icrating=200m mfg=Fairchild)

.model 2N5771   PNP(Is=545.6E-18 Xti=3 Eg=1.11 Vaf=100 Bf=76.77 Ne=1.5 Ise=0 Ikf=50m Xtb=1.5 Br=1.365 Nc=2 Isc=0 Ikr=0 Rc=3.75 Cjc=2.77p
+ Mjc=.1416 Vjc=.75 Fc=.5 Cje=2.65p Mje=.3083 Vje=.75 Tr=4.033n Tf=118.5p Itf=.5 Vtf=3 Xtf=6 Rb=10 Vceo=15 Icrating=200m mfg=Fairchild)

.model 2N3055   NPN(Bf=73 Br=2.66 Rb=.81 Rc=.0856 Re=.000856
+  CJC=1000P PC=.75 MC=.33  Tr=.5703U Is=2.37E-8
+  CJE=415P PE=.75 ME=.5 TF=99.52N NE=1.26 IK=1 Vceo=60 Icrating=10 mfg=STMicro)


.model 2N3019 NPN(Is=14f Vaf=100 Bf=200 Ikf=.75 Xtb=1.5 Br=5 Rc=.7 Cjc=16p Mjc=.36  Cje=55p Mje=.1553 Tr=800p Tf=800p Itf=1.2 Vtf=5 Xtf=55 Rb=10 Vceo=80 Icrating=1 mfg=Semicoa)
.model BC547B NPN(IS=2.39E-14 NF=1.008 ISE=3.545E-15 NE=1.541 BF=294.3 IKF=0.1357 VAF=63.2 NR=1.004 ISC=6.272E-14 NC=1.243 BR=7.946 IKR=0.1144 VAR=25.9 RB=1 IRB=1.00E-06 RBM=1 RE=0.4683 RC=0.85 XTB=0 EG=1.11 XTI=3 CJE=1.358E-11 VJE=0.65 MJE=0.3279 TF=4.391E-10 XTF=120 VTF=2.643 ITF=0.7495 PTF=0 CJC=3.728E-12 VJC=0.3997 MJC=0.2955 XCJC=0.6193 TR=1.00E-32 CJS=0 VJS=0.75 MJS=0.333 FC=0.9579 Vceo=45 Icrating=100m mfg=NXP)
.model BC547C NPN(IS=4.679E-14 NF=1.01 ISE=2.642E-15 NE=1.581 BF=458.7 IKF=0.1371 VAF=52.64 NR=1.019 ISC=2.337E-14 NC=1.164 BR=11.57 IKR=0.1144 VAR=364.5 RB=1 IRB=1.00E-06 RBM=1 RE=0.2598 RC=1 XTB=0 EG=1.11 XTI=3 CJE=1.229E-11 VJE=0.5591 MJE=0.3385 TF=4.689E-10 XTF=160 VTF=2.828 ITF=0.8842 PTF=0 CJC=4.42E-12 VJC=0.1994 MJC=0.2782 XCJC=0.6193 TR=1.00E-32 CJS=0 VJS=0.75 MJS=0.333 FC=0.7936 Vceo=45 Icrating=100m mfg=NXP)
.model BC847A NPN(IS=9.677E-15 NF=0.9922 ISE=5.44E-15 NE=2 BF=182.1 IKF=0.14 VAF=143.8 NR=0.9935 ISC=5.236E-12 NC=1.53 BR=7.004 IKR=0.06 VAR=31.15 RB=10 IRB=5.00E-06 RBM=4 RE=0.78 RC=0.656 XTB=0 EG=1.11 XTI=3 CJE=1.443E-11 VJE=0.733 MJE=0.3514 TF=6.04E-10 XTF=8.94 VTF=3.78 ITF=0.2711 PTF=0 CJC=3.287E-12 VJC=0.5444 MJC=0.3954 XCJC=0.6193 TR=0.00000011 CJS=0 VJS=0.75 MJS=0.333 FC=0.789 Vceo=45 Icrating=100m mfg=NXP)
.model BC847B NPN(IS=1.822E-14 NF=0.9932 ISE=2.894E-16 NE=1.4 BF=324.4 IKF=0.109 VAF=82 NR=0.9931 ISC=9.982E-12 NC=1.763 BR=8.29 IKR=0.09 VAR=17.9 RB=10 IRB=5.00E-06 RBM=5 RE=0.649 RC=0.7014 XTB=0 EG=1.11 XTI=3 CJE=1.244E-11 VJE=0.7579 MJE=0.3656 TF=4.908E-10 XTF=9.51 VTF=2.927 ITF=0.3131 PTF=0 CJC=3.347E-12 VJC=0.5463 MJC=0.391 XCJC=0.6193 TR=9.00E-08 CJS=0 VJS=0.75 MJS=0.333 FC=0.979 Vceo=45 Icrating=100m mfg=NXP)
.model BC847C NPN(IS=2.375E-14 NF=0.9925 ISE=5.16E-16 NE=1.3 BF=524.9 IKF=0.09 VAF=49.77 NR=0.9931 ISC=7.064E-12 NC=1.78 BR=10.04 IKR=0.132 VAR=16 RB=10 IRB=5.00E-06 RBM=5 RE=0.653 RC=0.78 XTB=0 EG=1.11 XTI=3 CJE=1.132E-11 VJE=0.7685 MJE=0.3733 TF=4.258E-10 XTF=6.319 VTF=6.4 ITF=0.1845 PTF=0 CJC=3.379E-12 VJC=0.5444 MJC=0.3968 XCJC=0.6193 TR=0.000000095 CJS=0 VJS=0.75 MJS=0.333 FC=0.999 Vceo=45 Icrating=100m mfg=NXP)
.model BC817-25 NPN(IS=9.198E-14 NF=1.003 ISE=4.468E-16 NE=1.65 BF=338.8 IKF=0.4913 VAF=107.9 NR=1.002 ISC=5.109E-15 NC=1.071 BR=29.48 IKR=0.193 VAR=25 RB=1 IRB=1000 RBM=1 RE=0.2126 RC=0.143 XTB=0 EG=1.11 XTI=3 CJE=3.825E-11 VJE=0.7004 MJE=0.364 TF=5.229E-10 XTF=219.7 VTF=3.502 ITF=7.257 PTF=0 CJC=1.27E-11 VJC=0.4431 MJC=0.3983 XCJC=0.4555 TR=7E-11 CJS=0 VJS=0.75 MJS=0.333 FC=0.905 Vceo=45 Icrating=500m mfg=NXP)
.model BC817-40 NPN(IS=6.286E-14 NF=0.9917 ISE=4.53E-15 NE=1.774 BF=416.3 IKF=0.4913 VAF=98.08 NR=0.9895 ISC=1.877E-13 NC=1.3 BR=24.49 IKR=0.203 VAR=25 RB=1 IRB=1000 RBM=1 RE=0.2256 RC=0.143 XTB=0 EG=1.11 XTI=3 CJE=3.568E-11 VJE=0.726 MJE=0.3721 TF=4.826E-10 XTF=120 VTF=3.654 ITF=5.104 PTF=0 CJC=1.296E-11 VJC=0.3241 MJC=0.3742 XCJC=0.455 TR=7E-11 CJS=0 VJS=0.75 MJS=0.333 FC=0.8662 Vceo=45 Icrating=500m mfg=NXP)
.model BC337-25 NPN(IS=4.13E-14 NF=0.9822 ISE=3.534E-15 NE=1.35 BF=292.4 IKF=0.9 VAF=145.7 NR=0.982 ISC=1.957E-13 NC=1.3 BR=23.68 IKR=0.1 VAR=20 RB=60 IRB=2.00E-04 RBM=8 RE=0.1129 RC=0.25 XTB=0 EG=1.11 XTI=3 CJE=3.799E-11 VJE=0.6752 MJE=0.3488 TF=5.4E-10 XTF=4 VTF=4.448 ITF=0.665 PTF=90 CJC=1.355E-11 VJC=0.3523 MJC=0.3831 XCJC=0.455 TR=3.00E-08 CJS=0 VJS=0.75 MJS=0.333 FC=0.643 Vceo=45 Icrating=500m mfg=NXP)
.model BC337-40 NPN(IS=7.809E-14 NF=0.9916 ISE=2.069E-15 NE=1.4 BF=436.8 IKF=0.8 VAF=103.6 NR=0.991 ISC=6.66E-14 NC=1.2 BR=44.14 IKR=0.09 VAR=14 RB=70 IRB=2.00E-04 RBM=8 RE=0.12 RC=0.24 XTB=0 EG=1.11 XTI=3 CJE=3.579E-11 VJE=0.6657 MJE=0.3596 TF=5E-10 XTF=2.5 VTF=2 ITF=0.5 PTF=88 CJC=1.306E-11 VJC=0.3647 MJC=0.3658 XCJC=0.455 TR=2.50E-08 CJS=0 VJS=0.75 MJS=0.333 FC=0.843 Vceo=45 Icrating=500m mfg=NXP)
.model BC557B PNP(IS=3.83E-14 NF=1.008 ISE=1.22E-14 NE=1.528 BF=344.4 IKF=0.08039 VAF=21.11 NR=1.005 ISC=2.85E-13 NC=1.28 BR=14.84 IKR=0.047 VAR=32.02 RB=1 IRB=1.00E-06 RBM=1 RE=0.6202 RC=0.5713 XTB=0 EG=1.11 XTI=3 CJE=1.23E-11 VJE=0.6106 MJE=0.378 TF=5.60E-10 XTF=3.414 VTF=5.23 ITF=0.1483 PTF=0 CJC=1.08E-11 VJC=0.1022 MJC=0.3563 XCJC=0.6288 TR=1.00E-32 CJS=0 VJS=0.75 MJS=0.333 FC=0.8027 Vceo=45 Icrating=100m mfg=NXP)
.model BC557C PNP(IS=5.83E-14 NF=1.009 ISE=3.88E-15 NE=1.408 BF=516.7 IKF=0.08039 VAF=26.03 NR=1.006 ISC=4.01E-14 NC=1.313 BR=12.45 IKR=0.07238 VAR=6.717 RB=1 IRB=1.00E-06 RBM=1 RE=0.5685 RC=0.6257 XTB=0 EG=1.11 XTI=3 CJE=1.26E-11 VJE=0.3809 MJE=0.3545 TF=5.23E-10 XTF=4.339 VTF=5.425 ITF=0.1896 PTF=0 CJC=7.80E-12 VJC=0.5897 MJC=0.4569 XCJC=0.6288 TR=1.00E-32 CJS=0 VJS=0.75 MJS=0.333 FC=0.5729 Vceo=45 Icrating=100m mfg=NXP)
.model BC857A PNP(IS=1.17E-14 NF=0.9972 ISE=1.762E-14 NE=1.661 BF=161.3 IKF=0.15 VAF=59.62 NR=0.9967 ISC=1.506E-13 NC=1.32 BR=6.78 IKR=0.048 VAR=15.4 RB=10 IRB=5.00E-06 RBM=5 RE=0.689 RC=0.61 CJE=1.325E-11 VJE=0.8514 MJE=0.3999 TF=8.333E-10 XTF=2.41 VTF=6.262 ITF=0.097 PTF=0 CJC=6.396E-12 VJC=0.2182 MJC=0.333 XCJC=0.6288 TR=0.00000007 CJS=0 VJS=0.75 MJS=0.333 XTB=0 XTI=3 EG=1.11 FC=0.8981 Vceo=45 Icrating=100m mfg=NXP)
.model BC857B PNP(IS=2.014E-14 NF=0.9974 ISE=6.578E-15 NE=1.45 BF=315.3 IKF=0.079 VAF=39.15 NR=0.9952 ISC=1.633E-14 NC=1.15 BR=8.68 IKR=0.09 VAR=9.5 RB=10 IRB=5.00E-06 RBM=5.00E-06 RE=0.663 RC=0.718 CJE=1.135E-11 VJE=0.7071 MJE=0.3808 TF=6.546E-10 XTF=5.387 VTF=6.245 ITF=0.2108 PTF=0 CJC=6.395E-12 VJC=0.4951 MJC=0.44 XCJC=0.6288 TR=5.50E-08 CJS=0 VJS=0.75 MJS=0.333 XTB=0 XTI=3 EG=1.11 FC=0.9059 Vceo=45 Icrating=100m mfg=NXP)
.model BC857C PNP(IS=3.258E-14 NF=0.999 ISE=3.003E-15 NE=1.45 BF=515.4 IKF=0.066 VAF=25 NR=0.9985 ISC=4.393E-15 NC=1.2 BR=15.26 IKR=0.039 VAR=8 RB=10 IRB=5.00E-06 RBM=5 RE=0.7071 RC=0.58 CJE=1.024E-11 VJE=0.9 MJE=0.453 TF=5.971E-10 XTF=4.137 VTF=6.31 ITF=0.2108 PTF=0 CJC=6.345E-12 VJC=0.4254 MJC=0.423 XCJC=0.6288 TR=0.000000035 CJS=0 VJS=0.75 MJS=0.333 XTB=0 XTI=3 EG=1.11 FC=0.78 Vceo=45 Icrating=100m mfg=NXP)
.model BC807-25 PNP(IS=1.08E-13 NF=0.99 ISE=2.713E-14 NE=1.4 BF=385.7 IKF=0.3603 VAF=31.29 NR=0.9849 ISC=5.062E-13 NC=1.295 BR=20.57 IKR=0.054 VAR=11.62 RB=1 IRB=1.00E-06 RBM=0.5 RE=0.1415 RC=0.2623 XTB=0 EG=1.11 XTI=3 CJE=5.114E-11 VJE=0.8911 MJE=0.4417 TF=7.359E-10 XTF=1.859 VTF=3.813 ITF=0.4393 PTF=0 CJC=2.656E-11 VJC=0.62 MJC=0.4836 XCJC=0.459 TR=5.00E-08 CJS=0 VJS=0.75 MJS=0.333 FC=0.99 Vceo=45 Icrating=500m mfg=NXP)
.model BC807-40 PNP(IS=2.077E-13 NF=1.005 ISE=1.411E-14 NE=1.3 BF=449.8 IKF=0.36 VAF=29 NR=1.002 ISC=2.963E-13 NC=1.25 BR=20.92 IKR=0.104 VAR=10 RB=40 IRB=1.00E-05 RBM=5.3 RE=0.14 RC=0.32 XTB=0 EG=1.11 XTI=3 CJE=5E-11 VJE=0.9296 MJE=0.456 TF=7E-10 XTF=3.25 VTF=2.5 ITF=0.79 PTF=80 CJC=2.675E-11 VJC=0.8956 MJC=0.4638 XCJC=0.459 TR=3.50E-08 CJS=0 VJS=0.75 MJS=0.333 FC=0.935 Vceo=45 Icrating=500m mfg=NXP)
.model BC327-25 PNP(IS=1.08E-13 NF=0.99 ISE=2.713E-14 NE=1.4 BF=385.7 IKF=0.3603 VAF=31.29 NR=0.9849 ISC=5.062E-13 NC=1.295 BR=20.57 IKR=0.054 VAR=11.62 RB=1 IRB=1.00E-06 RBM=0.5 RE=0.1415 RC=0.2623 XTB=0 EG=1.11 XTI=3 CJE=5.114E-11 VJE=0.8911 MJE=0.4417 TF=7.359E-10 XTF=1.859 VTF=3.813 ITF=0.4393 PTF=0 CJC=2.656E-11 VJC=0.62 MJC=0.4836 XCJC=0.459 TR=5.00E-08 CJS=0 VJS=0.75 MJS=0.333 FC=0.99 Vceo=45 Icrating=500m mfg=NXP)
.model BC327-40 PNP(IS=2.077E-13 NF=1.005 ISE=1.411E-14 NE=1.3 BF=449.8 IKF=0.36 VAF=29 NR=1.002 ISC=2.963E-13 NC=1.25 BR=20.92 IKR=0.104 VAR=10 RB=40 IRB=1.00E-05 RBM=5.3 RE=0.14 RC=0.32 XTB=0 EG=1.11 XTI=3 CJE=5E-11 VJE=0.9296 MJE=0.456 TF=7E-10 XTF=3.25 VTF=2.5 ITF=0.79 PTF=80 CJC=2.675E-11 VJC=0.8956 MJC=0.4638 XCJC=0.459 TR=3.50E-08 CJS=0 VJS=0.75 MJS=0.333 FC=0.935 Vceo=45 Icrating=500m mfg=NXP)
.model BC546B NPN(IS=2.39E-14 NF=1.008 ISE=3.55E-15 NE=1.541 BF=294.3 IKF=0.1357 VAF=63.2 NR=1.004 ISC=6.27E-14 NC=1.243 BR=7.946 IKR=0.1144 VAR=25.9 RB=1 IRB=1.00E-06 RBM=1 RE=0.4683 RC=0.85 XTB=0 EG=1.11 XTI=3 CJE=1.36E-11 VJE=0.65 MJE=0.3279 TF=4.39E-10 XTF=120 VTF=2.643 ITF=0.7495 PTF=0 CJC=3.73E-12 VJC=0.3997 MJC=0.2955 XCJC=0.6193 TR=1.00E-32 CJS=0 VJS=0.75 MJS=0.333 FC=0.9579 Vceo=65 Icrating=100m mfg=NXP)
.model BC846B NPN(IS=1.82E-14 NF=0.9932 ISE=2.89E-16 NE=1.4 BF=324.4 IKF=0.109 VAF=82 NR=0.9931 ISC=9.98E-12 NC=1.763 BR=8.29 IKR=0.09 VAR=17.9 RB=10 IRB=5.00E-06 RBM=5 RE=0.649 RC=0.7014 XTB=0 EG=1.11 XTI=3 CJE=1.24E-11 VJE=0.7579 MJE=0.3656 TF=4.91E-10 XTF=9.51 VTF=2.927 ITF=0.3131 PTF=0 CJC=3.35E-12 VJC=0.5463 MJC=0.391 XCJC=0.6193 TR=9.00E-08 CJS=0 VJS=0.75 MJS=0.333 FC=0.979 Vceo=65 Icrating=100m mfg=NXP)
.model BC556B PNP(IS=3.83E-14 NF=1.008 ISE=1.22E-14 NE=1.528 BF=344.4 IKF=0.08039 VAF=21.11 NR=1.005 ISC=2.85E-13 NC=1.28 BR=14.84 IKR=0.047 VAR=32.02 RB=1 IRB=1.00E-06 RBM=1 RE=0.6202 RC=0.5713 XTB=0 EG=1.11 XTI=3 CJE=1.23E-11 VJE=0.6106 MJE=0.378 TF=5.60E-10 XTF=3.414 VTF=5.23 ITF=0.1483 PTF=0 CJC=1.08E-11 VJC=0.1022 MJC=0.3563 XCJC=0.6288 TR=1.00E-32 CJS=0 VJS=0.75 MJS=0.333 FC=0.8027 Vceo=65 Icrating=100m mfg=NXP)
.model BC856B PNP(IS=2.01E-14 NF=0.9974 ISE=6.58E-15 NE=1.45 BF=315.3 IKF=0.079 VAF=39.15 NR=0.9952 ISC=1.63E-14 NC=1.15 BR=8.68 IKR=0.09 VAR=9.5 RB=10 IRB=5.00E-06 RBM=5.00E-06 RE=0.663 RC=0.718 XTB=0 EG=1.11 XTI=3 CJE=1.14E-11 VJE=0.7071 MJE=0.3808 TF=6.55E-10 XTF=5.387 VTF=6.245 ITF=0.2108 PTF=0 CJC=6.40E-12 VJC=0.4951 MJC=0.44 XCJC=0.6288 TR=5.50E-08 CJS=0 VJS=0.75 MJS=0.333 FC=0.9059 Vceo=65 Icrating=100m mfg=NXP)
.model D45H11 PNP(IS=7.89979e-11 BF=65.9745 NF=0.851012 VAF=10.7084 IKF=10 Ise=4.79702e-14 Ne=4 BR=1.96197
+ Nr=1.29503 VAR=23.2874 IKR=9.99625 Isc=4.79702e-14 Nc=3.59375 Rb=2.35587 Irb=0.108633 Rbm=0.101928
+ Re=0.000100027 Rc=0.122304 XTB=0.137608 XTI=1.0316 Eg=1.12218 Cje=1.03083e-09 Vje=0.651747 Mje=0.353069
+ TF=3.89762e-09 XTF=1.35721 VTF=0.99569 ITF=0.999994 Cjc=5e-10 Vjc=0.42654 Mjc=0.24282 Xcjc=0.803125
+ FC=0.533457 Cjs=0 Vjs=0.75 Mjs=0.5 TR=4.90984e-07 PTF=0 KF=0 AF=1 Vceo=80 Icrating=10 mfg=On_Semiconductor)
.model MAT-02 NPN(Is=.6p Bf=500 Vaf=150 BR=0.5 Var=7 Rb=13 Rc=10 Re=.3 Cje=82p Vje=.7 Mje=.4 TF=.3n TR=5n Cjc=33p Vjc=.55 Mjc=.5 IKF=.3 PTF=25 Vceo=40 Icrating=20m mfg=Analog_Devices)
.model LS301 NPN(Is=18.04p Xti=3.7 Eg=1.17 Vaf=23.6 Bf=1495 Ne=1.34 Ise=0.66f Nr=1 Ikf=16.7m Xtb=1.56 Br=5.89 Ikr=26.3m Var=8.35 Isc=0.001n Nc=1.72 Nf=1 Rb=1194 Re=0.94 Rc=203 Cjc=2.46p Cje=2.36p Mjc=135m Mje=219m Vjc=400m Vje=648m Tf=0.24n Tr=10n Vtf=5 Xtf=1 Rbm=11.6 Irb=10u Ptf=20 Fc=0.9 Itf=50m Tikf1=-5.38m Tvaf1=-364u Trc1=3.3m Level=1 mfg=Linear_Systems)
.model LS302 NPN(Is=18.04p Xti=3.7 Eg=1.17 Vaf=23.6 Bf=1495 Ne=1.34 Ise=0.66f Nr=1 Ikf=16.7m Xtb=1.56 Br=5.89 Ikr=26.3m Var=8.35 Isc=0.001n Nc=1.72 Nf=1 Rb=1194 Re=0.94 Rc=203 Cjc=2.46p Cje=2.36p Mjc=135m Mje=219m Vjc=400m Vje=648m Tf=0.24n Tr=10n Vtf=5 Xtf=1 Rbm=11.6 Irb=10u Ptf=20 Fc=0.9 Itf=50m Tikf1=-5.38m Tvaf1=-364u Trc1=3.3m Level=1 mfg=Linear_Systems)
.model LS303 NPN(Is=18.04p Xti=3.7 Eg=1.17 Vaf=23.6 Bf=1495 Ne=1.34 Ise=0.66f Nr=1 Ikf=16.7m Xtb=1.56 Br=5.89 Ikr=26.3m Var=8.35 Isc=0.001n Nc=1.72 Nf=1 Rb=1194 Re=0.94 Rc=203 Cjc=2.46p Cje=2.36p Mjc=135m Mje=219m Vjc=400m Vje=648m Tf=0.24n Tr=10n Vtf=5 Xtf=1 Rbm=11.6 Irb=10u Ptf=20 Fc=0.9 Itf=50m Tikf1=-5.38m Tvaf1=-364u Trc1=3.3m Level=1 mfg=Linear_Systems)
.model LS310 NPN(Is=5.78f Xti=3.63 Eg=1.17 Vaf=145 Bf=466 Ne=1.44 Ise=0.87f Nr=1 Ikf=64m Xtb=1.36 Br=1.37 Ikr=10m Var=8.35 Isc=0.2f Nc=2 Nf=1 Rb=100 Re=0.36 Rc=10 Cjc=2.2p Cje=3.16p Mjc=129m Mje=236m Vjc=400m Vje=665m Tf=0.31n Tr=10n Vtf=14 Xtf=9 Rbm=10 Irb=10u Ptf=20 Fc=0.98 Itf=48m Mfg=Linear_Systems)
.model LS311 NPN(Is=5.78f Xti=3.63 Eg=1.17 Vaf=145 Bf=466 Ne=1.44 Ise=0.87f Nr=1 Ikf=64m Xtb=1.36 Br=1.37 Ikr=10m Var=8.35 Isc=0.2f Nc=2 Nf=1 Rb=100 Re=0.36 Rc=10 Cjc=2.2p Cje=3.16p Mjc=129m Mje=236m Vjc=400m Vje=665m Tf=0.31n Tr=10n Vtf=14 Xtf=9 Rbm=10 Irb=10u Ptf=20 Fc=0.98 Itf=48m Mfg=Linear_Systems)
.model LS312 NPN(Is=2.31f Xti=3.91 Eg=1.17 Vaf=244.8 Bf=401 Ne=1.64 Ise=0.99f Nr=1 Ikf=65m Xtb=1.35 Br=1.5 Ikr=10m Var=8.35 Isc=7.91p Nc=1.8 Nf=1 Rb=100 Re=0.44 Rc=43 Cjc=1.83p Cje=2.02p Mjc=129m Mje=213m Vjc=400m Vje=666m Tf=0.53n Tr=10n Vtf=5 Xtf=17 Rbm=10 Irb=10u Ptf=20 Fc=0.96 Itf=26m Mfg=Linear_Systems)
.model LS313 NPN(Is=9.58f Xti=3.56 Eg=1.17 Vaf=78.92 Bf=850 Ne=1.66 Ise=0.99f Nr=1 Ikf=29m Xtb=1.27 Br=4.43 Ikr=10m Var=8.35 Isc=0.001f Nc=1.8 Nf=1 Rb=100 Re=0.36 Rc=99 Cjc=2.0612p Cje=2.4p Mjc=159m Mje=273.2m Vjc=432m Vje=757m Tf=0.27n Tr=10n Vtf=5 Xtf=1 Rbm=10 Irb=10u Fc=0.98 Itf=30m Mfg=Linear_Systems)
.model LS350 PNP(Is=3.82f Xti=3 Eg=1.17 Vaf=37.3 Bf=676 Ne=1.45 Ise=1.45f Nr=1 Ikf=6m Xtb=1.5 Br=638m Ikr=489u Var=20 Isc=0.001f Nc=1.9 Nf=1 Rb=200 Re=0.9 Rc=231 Cjc=2.53p Cje=1.99p Mjc=179.5m Mje=217m Vjc=400m Vje=604m Tf=0.72n Tr=10n Vtf=5 Xtf=2.04 Rbm=10 Irb=10u Ptf=20 Fc=0.5 Itf=18m Mfg=Linear_Systems)
.model LS351 PNP(Is=1.95f Xti=3.41 Eg=1.17 Vaf=66.94 Bf=274 Ne=1.36 Ise=1.2f Nr=1 Ikf=14m Xtb=1.71 Br=449m Ikr=421u Var=20 Isc=12.15p Nc=1.9 Nf=1 Rb=200 Re=0.91 Rc=231 Cjc=2.79p Cje=2.16p Mjc=252m Mje=194.29m Vjc=763m Vje=562m Tf=0.81n Tr=10n Vtf=5 Xtf=1.49 Rbm=10 Irb=10u Ptf=20 Fc=0.97 Itf=11m Mfg=Linear_Systems)
.model LS352 PNP(Is=2.31f Xti=3.52 Eg=1.17 Vaf=58.99 Bf=433 Ne=1 Ise=0.0018f Nr=1 Ikf=8.2m Xtb=1.80 Br=869m Ikr=209u Var=20 Isc=0.001f Nc=1.84 Nf=1 Rb=200 Re=0.21 Rc=231 Cjc=1.88p Cje=1.70p Mjc=131m Mje=221m Vjc=400m Vje=634m Tf=0.391n Tr=10n Vtf=5 Xtf=1.2 Rbm=10 Irb=10u Ptf=20 Fc=0.9 Itf=10m Mfg=Linear_Systems)
.model LS358 PNP(Is=2.30f Xti=3.67 Eg=1.17 Vaf=23.34 Bf=350 Ne=1.35 Ise=0.58f Nr=1 Ikf=16m Xtb=1.75 Br=1.54 Ikr=300u Var=20 Isc=0.001f Nc=1.84 Nf=1 Rb=200 Re=0.08 Rc=128 Cjc=3.40p Cje=2.27p Mjc=227.m Mje=222.92m Vjc=400m Vje=660m Tf=0.5n Tr=10n Vtf=5 Xtf=2 Rbm=10 Irb=10u Ptf=20 Fc=0.98 Itf=35m Mfg=Linear_Systems)
.model LS3250A NPN(Is=10f Xti=4.53 Eg=1.17 Vaf=251 Bf=458 Ne=1.18 Ise=0.16f Nr=1 Ikf=18m Xtb=1.41 Br=5.9 Ikr=26m Var=8.35 Isc=4.38p Nc=1.47 Nf=1 Rb=100 Re=6.5 Rc=21 Cjc=3.62p Cje=6.4p Mjc=200m Mje=304m Vjc=414m Vje=685m Tf=0.2n Tr=10n Vtf=5 Xtf=1 Rbm=12 Irb=10u Ptf=20 Fc=0.98 Itf=70m Mfg=Linear_Systems)
.model LS3250B NPN(Is=5.43f Xti=4.4 Eg=1.17 Vaf=272.5 Bf=264 Ne=1.11 Ise=0.057f Nr=1 Ikf=28m Xtb=1.42 Br=5.0 Ikr=26m Var=8.35 Isc=4.39p Nc=1.47 Nf=1 Rb=100 Re=6.5 Rc=21 Cjc=3.6p Cje=6.63p Mjc=198m Mje=301m Vjc=412m Vje=679m Tf=0.24n Tr=10n Vtf=5 Xtf=1 Rbm=12 Irb=10u Ptf=20 Fc=0.98 Itf=46m Mfg=Linear_Systems)
.model LS3250C NPN(Is=5.43f Xti=4.4 Eg=1.17 Vaf=272.5 Bf=264 Ne=1.11 Ise=0.057f Nr=1 Ikf=28m Xtb=1.42 Br=5.0 Ikr=26m Var=8.35 Isc=4.39p Nc=1.47 Nf=1 Rb=100 Re=6.5 Rc=21 Cjc=3.6p Cje=6.63p Mjc=198m Mje=301m Vjc=412m Vje=679m Tf=0.24n Tr=10n Vtf=5 Xtf=1 Rbm=12 Irb=10u Ptf=20 Fc=0.98 Itf=46m Mfg=Linear_Systems)
.model LS3550A PNP(Is=9.04f Xti=3.65 Eg=1.17 Vaf=28.2 Bf=202 Ne=2 Ise=0.003f Nr=1 Ikf=45m Xtb=2.30 Br=6.87 Ikr=500u Var=20 Isc=0.41p Nc=1.8 Nf=1 Rb=100 Re=0.06 Rc=30 Cjc=6.02p Cje=5.48p Mjc=280m Mje=285.48m Vjc=538m Vje=622m Tf=0.26n Tr=10n Vtf=5 Xtf=0.1 Rbm=10 Irb=10u Ptf=20 Fc=0.97 Itf=40m Mfg=Linear_Systems)
.model LS3550B PNP(Is=9.04f Xti=3.65 Eg=1.17 Vaf=28.2 Bf=202 Ne=2 Ise=0.003f Nr=1 Ikf=45m Xtb=2.30 Br=6.87 Ikr=500u Var=20 Isc=0.41p Nc=1.8 Nf=1 Rb=100 Re=0.06 Rc=30 Cjc=6.02p Cje=5.48p Mjc=280m Mje=285.48m Vjc=538m Vje=622m Tf=0.26n Tr=10n Vtf=5 Xtf=0.1 Rbm=10 Irb=10u Ptf=20 Fc=0.97 Itf=40m Mfg=Linear_Systems)
.model LS3550C PNP(Is=10.35f Xti=3.5 Eg=1.17 Vaf=43.80 Bf=214 Ne=1.98 Ise=62.3f Nr=1 Ikf=34m Xtb=2.08 Br=6.3 Ikr=420u Var=20 Isc=1.65p Nc=1.8 Nf=1 Rb=100 Re=0.06 Rc=30 Cjc=4.47p Cje=5.57p Mjc=189m Mje=321m Vjc=422.6m Vje=717m Tf=0.48n Tr=10n Vtf=5 Xtf=1 Rbm=10 Irb=10u Ptf=20 Fc=0.97 Itf=40m Mfg=Linear_Systems)
.model 2SA1036K PNP(Is=60f Bf=194.1 Vaf=31.85 Ikf=1.986 Ise=60f Ne=1.449 Br=8.869 Var=100 Ikr=59.05m Isc=60.1p Nc=1.743 Nk=1.003 Re=110m Rb=1.744 Rc=259.6m Cje=60.61p Mje=520.4m Cjc=21.13p Mjc=404.3m Tf=14.87p Xtf=121.2 Vtf=54.43 Itf=27.78m Tr=102.1n Xtb=1.5 Vceo=32 Icrating=0.5 mfg=Rohm)
.model 2SA1037AK PNP(Is=70f Bf=266.4 Vaf=50.7 Ikf=279.1m Ise=70f Ne=1.762 Br=1.873 Var=100 Ikr=2.001 Isc=270.8p Nc=1.792 Re=200m Rb=7.804 Rc=1.086 Cje=22.94p Mje=582.7m Cjc=11.61p Mjc=439.9m Tf=328.9p Xtf=331.2 Vtf=254.3 Itf=8.151 Tr=327.3n Xtb=1.5 Vceo=50 Icrating=0.15 mfg=Rohm)
.model 2SA1514K PNP(Is=60f Bf=410.2 Vaf=58.37 Ikf=248.5m Ise=60f Ne=1.672 Br=995.6m Var=100 Ikr=515.3m Isc=26.59p Nc=1.678 Nk=946.7m Rb=19.29 Rc=2.015 Cje=24.18p Mje=645m Cjc=11.93p Mjc=471.4m Tf=381.1p Xtf=3.996 Vtf=6.207 Itf=110.4m Tr=790.2n Xtb=1.5 Vceo=120 Icrating=0.05 mfg=Rohm)
.model 2SA1576U3 PNP(Is=70.000E-15 Bf=266.38 Vaf=50.700 Ikf=.27914 Ise=70.000E-15 Ne=1.7618 Br=1.8730 Var=100 Ikr=2.0006 Isc=270.82E-12 Nc=1.7915 Re=.2 Rb=7.8035 Rc=1.0862 Cje=22.937E-12 Mje=.58268 Cjc=11.613E-12 Mjc=.43988 Tf=328.92E-12 Xtf=331.17 Vtf=254.25 Itf=8.1505 Tr=327.28E-9 Xtb=1.5000 Vceo=50 Icrating=0.15 mfg=Rohm)
.model 2SA1576UB PNP(Is=70f Bf=266.4 Vaf=50.7 Ikf=279.1m Ise=70f Ne=1.762 Br=1.873 Var=100 Ikr=2.001 Isc=270.8p Nc=1.792 Re=200m Rb=7.804 Rc=1.086 Cje=22.94p Mje=582.7m Cjc=11.61p Mjc=439.9m Tf=328.9p Xtf=331.2 Vtf=254.3 Itf=8.151 Tr=327.3n Xtb=1.5 Vceo=50 Icrating=0.15 mfg=Rohm)
.model 2SA1577 PNP(Is=60.000E-15 Bf=194.09 Vaf=31.854 Ikf=1.9855 Ise=60.000E-15 Ne=1.4487 Br=8.8685 Var=100 Ikr=59.046E-3 Isc=60.100E-12 Nc=1.7430 Nk=1.0032 Re=.11 Rb=1.7439 Rc=.25957 Cje=60.611E-12 Mje=.52038 Cjc=21.129E-12 Mjc=.40433 Tf=14.874E-12 Xtf=121.15 Vtf=54.428 Itf=27.783E-3 Tr=102.06E-9 Xtb=1.5000 Vceo=32 Icrating=0.5 mfg=Rohm)
.model 2SA1579U3 PNP(Is=60.000E-15 Bf=410.23 Vaf=58.369 Ikf=.24851 Ise=60.000E-15 Ne=1.6719 Br=.99563 Var=100 Ikr=.5153 Isc=26.592E-12 Nc=1.6784 Nk=.94666 Rb=19.288 Rc=2.0146 Cje=24.180E-12 Mje=.64498 Cjc=11.927E-12 Mjc=.47137 Tf=381.07E-12 Xtf=3.9957 Vtf=6.2068 Itf=.11044 Tr=790.19E-9 Xtb=1.5000 Vceo=120 Icrating=0.05 mfg=Rohm)
.model 2SA1774 PNP(Is=70.000E-15 Bf=266.38 Vaf=50.700 Ikf=.27914 Ise=70.000E-15 Ne=1.7618 Br=1.8730 Var=100 Ikr=2.0006 Isc=270.82E-12 Nc=1.7915 Re=.2 Rb=7.8035 Rc=1.0862 Cje=22.937E-12 Mje=.58268 Cjc=11.613E-12 Mjc=.43988 Tf=328.92E-12 Xtf=331.17 Vtf=254.25 Itf=8.1505 Tr=327.28E-9 Xtb=1.5000 Vceo=50 Icrating=0.15 mfg=Rohm)
.model 2SA1774EB PNP(Is=70f Bf=266.4 Vaf=50.7 Ikf=279.1m Ise=70f Ne=1.762 Br=1.873 Var=100 Ikr=2.001 Isc=270.8p Nc=1.792 Re=200m Rb=7.804 Rc=1.086 Cje=22.94p Mje=582.7m Cjc=11.61p Mjc=439.9m Tf=328.9p Xtf=331.2 Vtf=254.3 Itf=8.151 Tr=327.3n Xtb=1.5 Vceo=50 Icrating=0.15 mfg=Rohm)
.model 2SA2018 PNP(Is=110.00E-15 Bf=394.09 Vaf=21.739 Ikf=.52024 Ise=110.00E-15 Ne=1.6818 Br=28.439 Var=100 Ikr=1.3710 Isc=2.0285E-12 Nc=2.1543 Nk=.56117 Re=.1 Rb=4.9687 Rc=.26205 Cje=44.776E-12 Mje=.43395 Cjc=8.9662E-12 Mjc=.25891 Tf=371.39E-12 Xtf=24.384 Vtf=41.974 Itf=32.155 Tr=10.676E-9 Xtb=1.5000 Vceo=12 Icrating=0.5 mfg=Rohm)
.model 2SA2029 PNP(Is=70f Bf=266.4 Vaf=50.7 Ikf=279.1m Ise=70f Ne=1.762 Br=1.873 Var=100 Ikr=2.001 Isc=270.8p Nc=1.792 Re=200m Rb=7.804 Rc=1.086 Cje=22.94p Mje=582.7m Cjc=11.61p Mjc=439.9m Tf=328.9p Xtf=331.2 Vtf=254.3 Itf=8.151 Tr=327.3n Xtb=1.5 Vceo=50 Icrating=0.15 mfg=Rohm)
.model 2SA2030 PNP(Is=110.00E-15 Bf=394.09 Vaf=21.739 Ikf=.52024 Ise=110.00E-15 Ne=1.6818 Br=28.439 Var=100 Ikr=1.3710 Isc=2.0285E-12 Nc=2.1543 Nk=.56117 Re=.1 Rb=4.9687 Rc=.26205 Cje=44.776E-12 Mje=.43395 Cjc=8.9662E-12 Mjc=.25891 Tf=371.39E-12 Xtf=24.384 Vtf=41.974 Itf=32.155 Tr=10.676E-9 Xtb=1.5000 Vceo=12 Icrating=0.5 mfg=Rohm)
.model 2SA2071P5 PNP(Is=700.00E-15 Bf=192.39 Vaf=100 Ikf=6.8965 Ise=700.00E-15 Ne=1.7521 Br=24.020 Var=100 Ikr=32.385E-3 Isc=57.252E-12 Nc=1.4443 Nk=.76838 Re=60.000E-3 Rb=.81034 Rc=7.5899E-3 Cje=596.75E-12 Mje=.41455 Cjc=158.94E-12 Mjc=.43434 Tf=594.99E-12 Xtf=544.41 Vtf=295.06 Itf=743.35 Tr=173.07E-9 Xtb=1.5000 Vceo=60 Icrating=3 mfg=Rohm)
.model 2SA2088U3 PNP(Is=65.000E-15 Bf=249.50 Vaf=100 Ikf=.69106 Ise=65.001E-15 Ne=1.4594 Br=10.162 Var=100 Ikr=11.394 Isc=5.0270E-12 Nc=1.3515 Nk=.79748 Re=.5 Rb=.81834 Rc=.20879 Cje=96.030E-12 Mje=.77026 Cjc=32.647E-12 Mjc=.57832 Tf=304.61E-12 Xtf=11.555 Vtf=13.588 Itf=8.1887 Tr=35.022E-9 Xtb=1.5000 Vceo=60 Icrating=0.5 mfg=Rohm)
.model 2SA2094 PNP(Is=1.0000E-12 Bf=237.46 Vaf=100 Ikf=3.7116 Ise=1.0000E-12 Ne=1.4875 Br=3.4075 Var=100 Ikr=.23214 Isc=19.134E-12 Nc=1.7098 Nk=.86947 Re=.12 Rb=.75694 Rc=25.941E-3 Cje=248.08E-12 Mje=.44606 Cjc=113.19E-12 Mjc=.56719 Tf=407.71E-12 Xtf=4.1307 Vtf=5.4891 Itf=5.0161 Tr=96.895E-9 Xtb=1.5000 Vceo=60 Icrating=2 mfg=Rohm)
.model 2SA2119K PNP(Is=110.00E-15 Bf=394.09 Vaf=21.739 Ikf=.52024 Ise=110.00E-15 Ne=1.6818 Br=28.439 Var=100 Ikr=1.3710 Isc=2.0285E-12 Nc=2.1543 Nk=.56117 Re=.1 Rb=4.9687 Rc=.26205 Cje=44.776E-12 Mje=.43395 Cjc=8.9662E-12 Mjc=.25891 Tf=371.39E-12 Xtf=24.384 Vtf=41.974 Itf=32.155 Tr=10.676E-9 Xtb=1.5000 Vceo=12 Icrating=0.5 mfg=Rohm)
.model 2SAR293P PNP(Is=500.00E-15 Bf=444.31 Vaf=24.600 Ikf=2.3829 Ise=500.00E-15 Ne=1.6482 Br=4.9950E3 Var=7.7000 Ikr=15.229 Isc=75.178E-12 Nc=1.5444 Nk=.86085 Re=80.000E-3 Rb=2.3056 Rc=.4924 Cje=83.703E-12 Vje=1.0522 Mje=.49837 Cjc=23.220E-12 Vjc=.80782 Mjc=.46231 Tf=451.11E-12 Xtf=108.26 Vtf=53.372 Itf=49.404 Tr=2.0000E-9 Xtb=1.5000 Vceo=30 Icrating=1 mfg=Rohm)
.model 2SAR293P5 PNP(Is=500.00E-15 Bf=444.31 Vaf=24.600 Ikf=2.3829 Ise=500.00E-15 Ne=1.6482 Br=4.9950E3 Var=7.7000 Ikr=15.229 Isc=75.178E-12 Nc=1.5444 Nk=.86085 Re=80.000E-3 Rb=2.3056 Rc=.4924 Cje=83.703E-12 Vje=1.0522 Mje=.49837 Cjc=23.220E-12 Vjc=.80782 Mjc=.46231 Tf=451.11E-12 Xtf=108.26 Vtf=53.372 Itf=49.404 Tr=2.0000E-9 Xtb=1.5000 Vceo=30 Icrating=1 mfg=Rohm)
.model 2SAR340P PNP(Is=250.00E-15 Bf=189.31 Vaf=257.28 Ikf=.99998 Ise=250.00E-15 Ne=1.5964 Br=.40769 Var=49.368 Ikr=6.9177 Isc=254.60E-15 Nc=1.0621 Nk=1.8285 Re=.3 Rb=11.216 Rc=2.8132 Cje=70.394E-12 Vje=.803 Mje=.37787 Cjc=48.807E-12 Vjc=1.4223 Mjc=.59914 Tf=9.3420E-9 Xtf=242.32 Vtf=56.620 Itf=1.8412 Tr=15.394E-6 Xtb=1.5000 Tre1=0.01 Vceo=400 Icrating=0.1 mfg=Rohm)
.model 2SAR340Q PNP(Is=250.00E-15 Bf=189.31 Vaf=257.28 Ikf=.99998 Ise=250.00E-15 Ne=1.5964 Br=.40769 Var=49.368 Ikr=6.9177 Isc=254.60E-15 Nc=1.0621 Nk=1.8285 Re=.3 Rb=11.216 Rc=2.8132 Cje=70.394E-12 Vje=.803 Mje=.37787 Cjc=48.807E-12 Vjc=1.4223 Mjc=.59914 Tf=9.3420E-9 Xtf=242.32 Vtf=56.620 Itf=1.8412 Tr=15.394E-6 Xtb=1.5000 Tre1=0.01 Vceo=400 Icrating=0.1 mfg=Rohm)
.model 2SAR372P5 PNP(Is=280.00E-15 Bf=141.29 Vaf=36.024 Ikf=7 Ise=280.02E-15 Ne=1.6258 Br=34.398 Var=33.600 Ikr=16.536 Isc=5.5324E-12 Nc=1.2657 Nk=1.0788 Re=50.000E-3 Rb=1.5423 Rc=.27111 Cje=519.12E-12 Vje=.94095 Mje=.43481 Cjc=88.923E-12 Vjc=.57143 Mjc=.46972 Tf=365.78E-12 Xtf=17.530 Vtf=16.571 Itf=2.8123 Tr=100.36E-9 Xtb=1.5000 Tre1=0.008 Vceo=120 Icrating=1.5 mfg=Rohm)
.model 2SAR375P5 PNP(Is=620.00E-15 Bf=163.20 Vaf=32.809 Ikf=14.999 Ise=5.1897E-12 Ne=1.9980 Br=9.5008 Var=34.400 Ikr=.6664 Isc=611.26E-12 Nc=1.8419 Nk=1.5503 Re=10.000E-3 Rb=1.0513 Rc=.11759 Cje=525.25E-12 Vje=.92656 Mje=.43058 Cjc=86.862E-12 Vjc=.76609 Mjc=.50243 Tf=455.31E-12 Xtf=5.1477 Vtf=28.663 Itf=2.4688 Tr=192.46E-9 Xtb=1.5000 Tre1=0.01 Vceo=120 Icrating=1.5 mfg=Rohm)
.model 2SAR502EB PNP(Is=100f Bf=505.1 Vaf=32.26 Ikf=363.3m Ise=100.1f Ne=2 Br=136.3 Var=17.82 Ikr=10.01m Isc=267p Nc=1.974 Nk=610.4m Re=10m Rb=11.14 Rc=513.8m Cje=30.3p Vje=1.031 Mje=471.8m Cjc=16.79p Vjc=1.151 Mjc=577.3m Tf=267.5p Xtf=7.249 Vtf=11.66 Itf=1.506 Tr=4.206n Xtb=1.2 Tre1=40m Vceo=30 Icrating=0.5 mfg=Rohm)
.model 2SAR502U3 PNP(Is=100.00E-15 Bf=505.13 Vaf=32.262 Ikf=.36334 Ise=100.06E-15 Ne=2 Br=136.26 Var=17.820 Ikr=10.010E-3 Isc=267.00E-12 Nc=1.9737 Nk=.61038 Re=10.000E-3 Rb=11.144 Rc=.51382 Cje=30.295E-12 Vje=1.0308 Mje=.47183 Cjc=16.789E-12 Vjc=1.1506 Mjc=.57734 Tf=267.48E-12 Xtf=7.2490 Vtf=11.657 Itf=1.5061 Tr=4.2058E-9 Xtb=1.2000 Tre1=0.04 Vceo=30 Icrating=0.5 mfg=Rohm)
.model 2SAR502UB PNP(Is=100f Bf=505.1 Vaf=32.26 Ikf=363.3m Ise=100.1f Ne=2 Br=136.3 Var=17.82 Ikr=10.01m Isc=267p Nc=1.974 Nk=610.4m Re=10m Rb=11.14 Rc=513.8m Cje=30.3p Vje=1.031 Mje=471.8m Cjc=16.79p Vjc=1.151 Mjc=577.3m Tf=267.5p Xtf=7.249 Vtf=11.66 Itf=1.506 Tr=4.206n Xtb=1.2 Tre1=40m Vceo=30 Icrating=0.5 mfg=Rohm)