* Copyright © 1999, 2000, 2001, 2002, 2003, 2004, 2005, 2006, 2007, 2008 Linear Technology Corporation.   All rights reserved.
*
* Mike Engelhardt
*

.model 1N914 D(Is=2.52n Rs=.568 N=1.752 Cjo=4p M=.4 tt=20n Iave=200m Vpk=75 mfg=OnSemi type=silicon)
.model 1N4148 D(Is=2.52n Rs=.568 N=1.752 Cjo=4p M=.4 tt=20n Iave=200m Vpk=75 mfg=OnSemi type=silicon)
.model MMSD4148 D(Is=2.52n Rs=.568 N=1.752 Cjo=.64p M=.4 tt=5n Iave=200m Vpk=100 mfg=Onsemi type=silicon)
.model 1N5817 D(Is=31.7u Rs=.051 N=1.373 Cjo=190p M=.3 Eg=.69 Xti=2 Iave=1 Vpk=20 mfg=OnSemi type=Schottky)
.model 1N5818 D(Is=31.7u Rs=.051 N=1.373 Cjo=160p M=.38 Eg=.69 Xti=2 Iave=1 Vpk=30 mfg=OnSemi type=Schottky)
.model 1N5819 D(Is=31.7u Rs=.051 N=1.373 Cjo=110p M=.35 Eg=.69 Xti=2 Iave=1 Vpk=40 mfg=OnSemi type=Schottky)
.model BAT54 D(Is=.1u Rs=2.2 N=1 Cjo=12p M=.3 Eg=.69 Xti=2 Iave=300m Vpk=30 mfg=Vishay type=Schottky)
.model MBR0520L D(Is=82.5n Rs=.115 N=.7228 Cjo=180p M=.63 Eg=.69 Xti=2 Iave=.5 Vpk=20 mfg=OnSemi type=Schottky)
.model MBR0530L D(Is=1.55u Rs=.0858 N=1.079 Cjo=180p Eg=.69 Xti=2 Iave=.5 Vpk=30 mfg=OnSemi type=Schottky)
.model MBRS1100 D(Is=20.6u Rs=.0079 N=2.303 Cjo=270p M=.575 Eg=.69 Xti=2 Iave=1 Vpk=100 mfg=OnSemi type=Schottky)
.model MBRS130L D(Is=772n Rs=.0299 N=.8442 Cjo=290p M=.7 Eg=.69 Xti=2 Iave=1 Vpk=30 mfg=OnSemi type=Schottky)
.model MBRS140 D(Is=235n Rs=.109 N=.7760 Cjo=160p M=.6 Eg=.69 Xti=2 Iave=1 Vpk=40 mfg=OnSemi type=Schottky)
.model MBRS340 D(Is=22.6u Rs=.042 N=1.094 Cjo=480p M=.61 Eg=.69 Xti=2 Iave=3 Vpk=40 mfg=OnSemi type=Schottky)
.model MBRS360 D(Is=22.6u Rs=.042 N=1.094 Cjo=480p M=.61 Eg=.69 Xti=2 Iave=3 Vpk=60 mfg=OnSemi type=Schottky)
.model CMDSH2-3 D(Is=210nA Rs=.5 N=1.09 Cjo=50p M=.5 Eg=.69 Xti=2 Iave=200m Vpk=30 mfg=Central type=Schottky)
.model DFLS220L D(Is=25u Rs=.047 N=1 Cjo=252p M=.33 Eg=.69 Xti=2 Iave=2 Vpk=20 mfg=Diodes_Inc. type=Schottky)
.model MURS120 D(Is=33.8n Rs=.0236 N=1.718 Cjo=45p M=.6 tt=45n Iave=1 Vpk=200 mfg=OnSemi type=silicon)
.model MURS320 D(Is=1.06n Rs=.0111 N=1.367 Cjo=135p M=.45 tt=45n Iave=3 Vpk=200 mfg=OnSemi type=silicon)
.model MBR735 D(Is=159u Rs=.02 N=1.76 Cjo=740p M=.6 Eg=.69 Xti=2 Iave=7.5 Vpk=35 mfg=OnSemi type=Schottky)
.model MBR745 D(Is=159u Rs=.02 N=1.76 Cjo=740p M=.6 Eg=.69 Xti=2 Iave=7.5 Vpk=45 mfg=OnSemi type=Schottky)
.model BZX84C6V2L D(Is=1.5n Rs=.5 Cjo=185p nbv=3 bv=6.2 Ibv=1m Vpk=6.2 mfg=OnSemi type=Zener)
.model BZX84C8V2L D(Is=.8n Rs=.5 Cjo=135p nbv=3 bv=8.2 Ibv=1m Vpk=8.2 mfg=OnSemi type=Zener)
.model BZX84C10L D(Is=.6n Rs=.5 Cjo=150p nbv=5 bv=10 Ibv=1m Vpk=10 mfg=OnSemi type=Zener)
.model BZX84C12L D(Is=.6n Rs=.5 Cjo=150p nbv=5 bv=12 Ibv=1m Vpk=12 mfg=OnSemi type=Zener)
.model BZX84C15L D(Is=.6n Rs=.5 Cjo=110p nbv=6 bv=15 Ibv=1m Vpk=15 mfg=OnSemi type=Zener)
.model 1N750 D(Is=.88f Rs=.25 Cjo=175p M=.55 nbv=1.7 bv=4.7 Vj=.75 Isr=1.86n Nr=2 Ibv=20.245m Ibvl=1.96m Nbvl=15 Tbv1=-21.3u Vpk=4.7 mfg=OnSemi type=Zener)
.model MV2201 D(Is=1.365p Rs=1 Cjo=14.93p M=.4261 Vj=.75 Isr=16.02p Nr=2 Bv=25 Ibv=10u Vpk=25 mfg=OnSemi type=varactor)
.model KV1471 D(Is=.8p Rs=.8 Cjo=162p M=1.225 Vj=0.408 Vpk=18 mfg=Toko type=varactor)
.model MBR0540 D(Is=9.11u Rs=.121 N=1.33753 Eg=.69 Xti=2 Cjo=194p Vj=.25 M=.4 Iave=.5 Vpk=40 mfg=GI type=Schottky)
.model MUR460 D(Is=149n Rs=.0384 N=2 EG=1.285 XTI=.5 BV=800 IBV=1e-05 Cjo=126.4p Vj=1.34 M=.52 tt=44.4n Iave=4 Vpk=600 mfg=GI type=silicon)
.model MBRB2545CT D(Is=19.4n Rs=.01 N=.733 Eg=.718 Xti=.535 Cjo=2.05n Vj=.4 M=.41 Iave=25 Vpk=45 mfg=GI type=Schottky)
.model MBR20100CT D(Is=10u Rs=.005 N=1.5 Ikf=.3 Isr=10u Nr=3 Cjo=1e-11 Vj=.7 Iave=10 Vpk=100 mfg=OnSemi type=Schottky)
.model 30BQ060 D(Is=10u Rs=.04 N=1.4 Cjo=180p Eg=.69 Xti=2 Iave=3 Vpk=60 mfg=International_Rectifier type=Schottky)
.model UPSC600 D(Is=2p Rs=.33 N=1.5 Cjo=50p M=.3 Iave=1 Vpk=600 mfg=Microsemi type=Schottky)
.model NSPW500BS D(Is=.27n Rs=5.65 N=6.79 Cjo=42p Xti=200 Iave=30m Vpk=5 mfg=Nichia type=LED)
.model NSCW100 D(Is=16.88n Rs=8.163 N=9.626 Cjo=42p Xti=200 Iave=30m Vpk=5 mfg=Nichia type=LED)
.model QTLP690C D(Is=1e-22 Rs=6 N=1.5 Cjo=50p Xti=100 Iave=160m Vpk=5 mfg=Fairchild type=LED)
.model LXHL-BW02 D(Is=4.5e-20 Rs=.85 N=2.6 Cjo=1.18n Xti=200 Iave=400mA Vpk=5 mfg=Lumileds type=LED)
.model LXK2-PW14 D(Is=3.5e-17 Rs=.725 N=3.12 Cjo=1.2n Xti=200 Iave=1.6 Vpk=5 mfg=Lumileds type=LED)
.model AOT-2015 D(Is=5.961e-10 Rs=1.07 N=6.222 Cjo=.5n Xti=200 Iave=175mA Vpk=5 mfg=AOT type=LED)
.model NSSW008CT-P1 D(Is=.23f Rs=17.6 N=3.43 Cjo=42p Xti=120 Iave=35m Vpk=5 mfg=Nichia type=LED)
.model NSSWS108T D(Is=1.13e-18 Rs=14.9 N=3.02 Cjo=42p Xti=150 Iave=35m Vpk=5 mfg=Nichia type=LED)
.model PMEG2020AEA D(Is=5.409u Rs=.05676 N=1.02 Cjo=.1908n M=.4863 Eg=.69 Xti=2 BV=22 IBV=50u Vj=.3408 Iave=2 Vpk=20 mfg=NXP type=Schottky)
.model PMEG2010EA D(Is=1.686u Rs=.1249 N=1.015 Cjo=90.86p M=.4542 Eg=.69 Xti=2 BV=21 IBV=1u Vj=.1939 Iave=1 Vpk=20 mfg=NXP type=Schottky)
.model PMEG2010BEA D(Is=3.334u Rs=.08222 N=.9791 Cjo=.1266n M=.5 Eg=.69 Xti=2 BV=22 IBV=.0001 Vj=.3619 Iave=1 Vpk=20 mfg=NXP type=Schottky)
.model PMEG3010BEA D(Is=2.936u Rs=.1166 N=.9839 Cjo=.1068n M=.4948 Eg=.69 Xti=2 BV=33 IBV=75u Vj=.3459 Iave=1 Vpk=30 mfg=NXP type=Schottky)
.model PMEG4010BEA D(Is=2.831u Rs=.1975 N=.9816 Cjo=84.37p M=.4789 Eg=.69 Xti=2 BV=44 IBV=50u Vj=.3116 Iave=1 Vpk=40 mfg=NXP type=Schottky)
.model PMEG2005AEA D(Is=3.334u Rs=.08222 N=.9791 Cjo=.1266n M=.5 Eg=.69 Xti=2 BV=22 IBV=.0001 Vj=.3619 Iave=.5 Vpk=20 mfg=NXP type=Schottky)
.model PMEG3005AEA D(Is=2.936u Rs=.1166 N=.9839 Cjo=.1068n M=.4948 Eg=.69 Xti=2 BV=33 IBV=75u Vj=.3459 Iave=.5 Vpk=30 mfg=NXP type=Schottky)
.model PMEG4005AEA D(Is=2.831u Rs=.1975 N=.9816 Cjo=84.37p M=.4789 Eg=.69 Xti=2 BV=44 IBV=50u Vj=.3116 Iave=.5 Vpk=40 mfg=NXP type=Schottky)
.model PMEG2010AEB D(Is=87.24u Rs=.2728 N=.9699 Cjo=29.99p M=.3755 Eg=.69 Xti=2 BV=22 IBV=.0004 Vj=.2604 Iave=1 Vpk=20 mfg=NXP type=Schottky)
.model PMEG2005EB D(Is=.9985u Rs=.2146 N=.9283 Cjo=61.05p M=.4159 Eg=.69 Xti=2 BV=32 IBV=.001 Vj=.1 Iave=.5 Vpk=20 mfg=NXP type=Schottky)
.model PMEG6010AED D(Is=.5u Rs=.3422 N=.9751 Cjo=.175n M=.4725 Eg=.69 Xti=2 BV=66 IBV=.0004 Vj=.3761 Iave=1 Vpk=60 mfg=NXP type=Schottky)
.model PRLL5817 D(Is=2.119u Rs=.0419 N=1.02 Cjo=.252n M=.5104 Eg=.69 Xti=2 BV=1000 IBV=.001 Vj=.4792 Iave=1 Vpk=20 mfg=NXP type=Schottky)
.model GSD2004W-V D(Is=.01p Rs=1.6 N=1 Cjo=5p tt=50n Iave=225m Vpk=300 mfg=Vishay type=silicon)
.model DFLZ33 D(Is=12.5p Rs=.6 N=1.1 Cjo=220p VJ=1 M=.33 tt=50n BV=29 IBV=1e-10 NBV=8 Vpk=33 mfg=Diodes_Inc. type=Zener)
.model PDS760 D(Is=360n Rs=.016 N=1.04 Cjo=1200p M=.33 Eg=.69 Xti=2 Iave=7 Vpk=60 mfg=Diodes_Inc. type=Schottky)
.model B520C D(Is=200u Rs=8m Cjo=300p N=1.7 Ikf=2 Isr=200u Nr=2 Iave=5 Vpk=20 mfg=Diodes_Inc. type=Schottky)
.model B530C D(Is=200u Rs=8m Cjo=300p N=1.7 Ikf=2 Isr=200u Nr=2 Iave=5 Vpk=30 mfg=Diodes_Inc. type=Schottky)
.model B540C D(Is=200u Rs=8m Cjo=300p N=1.7 Ikf=2 Isr=200u Nr=2 Iave=5 Vpk=40 mfg=Diodes_Inc. type=Schottky)
.model B550C D(Is=20u Rs=25m Cjo=300p N=1.7 Ikf=10 Isr=100u Nr=2 Iave=5 Vpk=50 mfg=Diodes_Inc. type=Schottky)
.model B560C D(Is=20u Rs=25m Cjo=300p N=1.7 Ikf=10 Isr=100u Nr=2 Iave=5 Vpk=60 mfg=Diodes_Inc. type=Schottky)
.model 10MQ060N D(Is=.1u Rs=.14 Cjo=102p N=1 M=.3 Eg=.69 Xti=2 Iave=1.5 Vpk=60 mfg=International_Rectifier type=Schottky)
.model ZLLS1000 D(Is=750n Rs=.13 N=1 Cjo=76p M=.3 Eg=.69 Iave=1 Vpk=40 mfg=Zetex type=Schottky)
.model ZLLS2000 D(Is=2u Rs=.06 N=1 Cjo=182p M=.3 Eg=.69 Iave=1 Vpk=40 mfg=Zetex type=Schottky)
.model PDS5100 D(Is=49.0u Rs=7.63m BV=100 IBV=200u Cjo=375p M=0.333 N=1.84 TT=21.6n Iave=5 Vpk=100 mfg=Diodes_Inc. type=Schottky)
.model ES1D D(Is=.5u Rs=25m N=2 Cjo=10.5p M=.4 tt=15n Iave=1 Vpk=200 mfg=Vishay type=silicon)
.model SS24 D(Is=.4mA Rs=.016 N=2.1 Cjo=800p Eg=.69 Xti=2 Iave=2 Vpk=40 mfg=Fairchild type=Schottky)
.model PT-121-B D(Is=4.352e-7 Rs=.032 N=8.37 Cjo=5n Xti=100 Iave=20A Vpk=5.3 mfg=Luminus type=LED)
.model 1N5373B D(IS=1.54e-17 N=1 XTI=1 Rs=.1 Cjo=10p TT=10n BV=68  IBV=20m NBV=50 Vpk=68 mfg=OnSemi type=Zener)
.model 1N5378B D(IS=1.54e-17 N=1 XTI=1 Rs=.1 Cjo=10p TT=10n BV=100 IBV=12m NBV=48 Vpk=100 mfg=OnSemi type=Zener)
.model 1N5375B D(IS=1.54e-17 N=1 XTI=1 Rs=.1 Cjo=10p TT=10n BV=82  IBV=15m NBV=35 Vpk=82 mfg=OnSemi type=Zener)
.model 1N5371B D(IS=1.54e-17 N=1 XTI=1 Rs=.1 Cjo=10p TT=10n BV=60  IBV=20m NBV=30 Vpk=60 mfg=OnSemi type=Zener)
.model 1N5369B D(IS=1.54e-17 N=1 XTI=1 Rs=.1 Cjo=10p TT=10n BV=51  IBV=25m NBV=35 Vpk=51 mfg=OnSemi type=Zener)
.model BAT46WJ D(Is=.1703u N=1.06 Rs=1.3 Cjo=35p Vj=.4 M=.5 Eg=.69 XTI=2 Iave=.25 Vpk=100 mfg=NXP type=Schottky)
.model SS3P5 D(Is=120u Rs=40m N=2.05 Cjo=200p Vj=700m M=.45 Iave=3 Vpk=50 mfg=Fairchild type=Schottky)
.model SMBJ24CA D(Ron=.65 Roff=50Meg Vfwd=25 epsilon=6 Vrev=25 revepsilon=6 Vpk=24 mfg=Littlefuse type=TVS)
.model SMCJ33A D(Ron=.4 Roff=8Meg Vfwd=.7 epsilon=100m Vrev=38.65 Vpk=33 revepsilon=4 mfg=Littlefuse type=TVS)
.model NSR20F30NXT5G D(Is=1e-07 Rs=0.0685826 N=0.776978 Eg=0.6 Xti=3.94234 BV=35 Ibv=0.665074 Cjo=3.78999e-10 Vj=0.484208 M=0.480643 Fc=0.5 TT=0 KF=0 AF=1 Vpk=30 mfg=OnSemi type=Schottky Iave=2)
.model RFU01SM4S D(Is=294.35E-12 N=2.0137 Rs=1.5143 Ikf=11.685E-3 Eg=1.2000 Cjo=1.6000E-12 M=.1889 Vj=.55345 Isr=975.68E-12 Nr=4 Bv=450 Tt=33.182E-9 Tikf=0.018 Trs1=0.0005 Iave=0.1 Vpk=450 mfg=Rohm type=Silicon)
.model RF05VAM1S D(Is=1.1825E-12 N=1.0061 Rs=52.469E-3 Ikf=12.140E-3 Eg=.9 Cjo=28.100E-12 M=.47776 Vj=.76142 Isr=91.946E-12 Nr=2.2000 Bv=100 Tt=28.8n Tikf=0.01 Iave=0.5 Vpk=100 mfg=Rohm type=Silicon)
.model RF05VAM2S D(Is=10.045E-12 N=1.1284 Rs=61.271E-3 Ikf=17.146E-3 Eg=.98 Cjo=21.422E-12 M=.50302 Vj=.99572 Isr=111.54E-12 Nr=2.7000 Bv=200 Tt=24.2n Tikf=0.01 Iave=0.5 Vpk=200 mfg=Rohm type=Silicon)
.model RFU02VS6S D(Is=4.9427E-9 N=2.3572 Rs=1.2300 Ikf=9.5772E-3 Eg=1.2000 Cjo=5.0000E-12 M=.40785 Vj=.75082 Isr=134.67E-12 Nr=3 Bv=600 Tt=34n Tikf=0.01 Iave=0.2 Vpk=600 mfg=Rohm type=Silicon)
.model RFU02VS8S D(Is=20.057E-9 N=2.9921 Rs=1.9320 Ikf=1.7685E-3 Eg=1.4000 Cjo=4.1000E-12 M=.33142 Vj=.7549 Isr=193.07E-12 Nr=3.5000 Bv=800 Tt=35.346E-9 Tikf=0.01 Trs1=-0.0015 Iave=0.2 Vpk=800 mfg=Rohm type=Silicon)
.model RF04UA2D D(Is=4.0404E-12 N=1.1718 Rs=.13276 Ikf=15.291E-3 Eg=1.0100 Cjo=10.245E-12 M=.49346 Vj=.85916 Isr=140.45E-12 Nr=3 Bv=200 Tt=24.8n Tikf=0.01 Iave=0.4 Vpk=200 mfg=Rohm type=Silicon)
.model RF601BM2D D(Is=85.433E-12 N=1.0869 Rs=9.7532E-3 Ikf=30.488E-3 Eg=.9 Cjo=99.780E-12 M=.41038 Vj=.43155 Isr=418.21E-12 Nr=3.2000 Bv=200 Tt=31.865E-9 Tikf=0.01 Iave=6 Vpk=200 mfg=Rohm type=Silicon)
.model RFN6BM2D D(Is=124.78E-12 N=1.1947 Rs=15.799E-3 Ikf=97.168E-3 Eg=.95 Cjo=87.740E-12 M=.45016 Vj=.50918 Isr=201.48E-12 Nr=3 Bv=200 Tt=25.304E-9 Tikf=0.018 Trs1=0.0005 Iave=6 Vpk=200 mfg=Rohm type=Silicon)
.model RF1001NS2D D(Is=58.151E-12 N=1.0482 Rs=7.1487E-3 Ikf=39.496E-3 Eg=.9 Cjo=186.24E-12 M=.42565 Vj=.48647 Isr=1.0282E-9 Nr=3.2000 Bv=200 Tt=30.089E-9 Tikf=0.01 Iave=10 Vpk=200 mfg=Rohm type=Silicon)
.model RF1601NS2D D(Is=14.351E-12 N=.96481 Rs=6.7789E-3 Ikf=42.397E-3 Eg=.92 Cjo=271.16E-12 M=.39883 Vj=.58603 Isr=1.5397E-9 Nr=2.4000 Bv=200 Tt=34n Tikf=0.01 Iave=16 Vpk=200 mfg=Rohm type=Silicon)
.model RF2001NS2D D(Is=181.15E-12 N=1.0508 Rs=5.7833E-3 Ikf=76.666E-3 Eg=.83 Cjo=368.36E-12 M=.4201 Vj=.48168 Isr=1.0416E-9 Nr=2.3000 Bv=200 Tt=36.748E-9 Tikf=0.01 Iave=20 Vpk=200 mfg=Rohm type=Silicon)
.model RF2001NS3D D(Is=2.7996E-9 N=1.4787 Rs=18.383E-3 Ikf=.28843 Eg=1.1000 Cjo=207.00E-12 M=.42954 Vj=.53732 Isr=1.3513E-9 Nr=3.2000 Bv=350 Tt=33n Tikf=0.01 Iave=20 Vpk=350 mfg=Rohm type=Silicon)
.model RFN3BM2S D(Is=124.78E-12 N=1.1947 Rs=15.799E-3 Ikf=97.168E-3 Eg=.95 Cjo=87.740E-12 M=.44455 Vj=.48313 Isr=202.78E-12 Nr=3 Bv=200 Tt=25.304E-9 Tikf=0.018 Trs1=0.0005 Iave=3 Vpk=200 mfg=Rohm type=Silicon)
.model RF501BM2S D(Is=29.875E-12 N=1.0196 Rs=6.7508E-3 Ikf=74.606E-3 Eg=0.91 Cjo=203.53E-12 M=0.4286 Vj=0.5153 Isr=397.65E-12 Bv=200 Tt=28.7n Trs1=0.0012 Tikf=0.014 Iave=5 Vpk=200 mfg=Rohm type=Silicon)
.model RFN5BM2S D(Is=457.90E-12 N=1.2127 Rs=11.859E-3 Ikf=.10931 Eg=.9 Cjo=135.60E-12 M=.45251 Vj=.56028 Isr=247.52E-12 Nr=2.3000 Bv=200 Tt=26n Tikf=0.01 Iave=5 Vpk=200 mfg=Rohm type=Silicon)
.model RFN5BM3S D(Is=1.8236E-9 N=1.3647 Rs=19.816E-3 Ikf=95.307E-3 Eg=0.91 Cjo=90.700E-12 M=.47124 Vj=.58267 Isr=232.66E-12 Nr=2.6 Bv=350 Tt=43n Trs1=-0.0008 Tikf=0.01 Iave=5 Vpk=350 mfg=Rohm type=Silicon)
.model RF305BM6S D(Is=2.7577E-9 N=1.8886 Rs=36.869E-3 Ikf=75.644E-3 Eg=1.2500 Cjo=101.00E-12 M=.47282 Vj=.51797 Isr=505.52E-12 Nr=3.2000 Bv=600 Tt=45.5n Tikf=0.01 Iave=3 Vpk=600 mfg=Rohm type=Silicon)
.model RFN3BM6S D(Is=794.33E-12 N=1.4592 Rs=57.11E-03 Ikf=5.5776E-03 Eg=1.252 Cjo=91.000E-12 M=0.5109 Vj=0.7392 Isr=592.99E-12 Nr=3.6388 Bv=600 Tt=40.326E-9 Trs1=-0.4500E-03 Iave=3 Vpk=600 mfg=Rohm type=Silicon)
.model RF505BM6S D(Is=14.418E-9 N=1.8209 Rs=24.737E-3 Ikf=.13898 Eg=1.0200 Cjo=150.00E-12 M=.54835 Vj=.70933 Isr=18.025E-12 Bv=600 Tt=49n Tikf=0.01 Iave=5 Vpk=600 mfg=Rohm type=Silicon)
.model RFN5BM6S D(Is=1.1861E-9 N=1.7549 Rs=30.639E-3 Ikf=.14756 Eg=1.2500 Cjo=90.000E-12 M=.47647 Vj=.59779 Isr=454.99E-12 Nr=3.2000 Bv=600 Tt=47.4n Tikf=0.01 Iave=5 Vpk=600 mfg=Rohm type=Silicon)
.model RFN10BM3S D(Is=1.3720E-9 N=1.4021 Rs=12.832E-3 Ikf=.21247 Eg=1 Cjo=165.90E-12 M=.47692 Vj=.59813 Isr=552.10E-12 Nr=2.5000 Bv=350 Tt=42.3n Tikf=0.01 Iave=10 Vpk=350 mfg=Rohm type=Silicon)
.model RFN10BM6S D(Is=13.436E-9 N=1.7555 Rs=13.156E-3 Ikf=.15702 Eg=1 Cjo=168.00E-12 M=.46459 Vj=.51864 Isr=212.37E-12 Nr=3 Bv=600 Tt=61n Tikf=0.01 Iave=10 Vpk=600 mfg=Rohm type=Silicon)
.model RFN10NS3S D(Is=1.3720E-9 N=1.4021 Rs=12.832E-3 Ikf=.21247 Eg=1 Cjo=165.90E-12 M=.47692 Vj=.59813 Isr=552.10E-12 Nr=2.5000 Bv=350 Tt=42.3n Tikf=0.01 Iave=10 Vpk=350 mfg=Rohm type=Silicon)
.model RFN20NS3S D(Is=2.2110E-9 N=1.3471 Rs=5.2059E-3 Ikf=.23497 Eg=.95 Cjo=415.00E-12 M=.45078 Vj=.59386 Isr=687.78E-12 Nr=2.5000 Bv=350 Tt=44n Tikf=0.01 Iave=20 Vpk=350 mfg=Rohm type=Silicon)
.model RFUH20NS3S D(Is=7.3862E-9 N=1.6058 Rs=9.5725E-3 Ikf=.345 Eg=1 Cjo=330.00E-12 M=.45903 Vj=.59546 Isr=288.07E-12 Nr=1.9000 Bv=350 Tt=25n Tikf=0.01 Iave=20 Vpk=350 mfg=Rohm type=Silicon)
.model RFUH25NS3S D(Is=6.6726E-9 N=1.5628 Rs=8.4063E-3 Ikf=.42612 Eg=1 Cjo=386.30E-12 M=.43719 Vj=.51591 Isr=885.54E-12 Nr=1.9000 Bv=350 Tt=27n Tikf=0.01 Iave=20 Vpk=350 mfg=Rohm type=Silicon)
.model RFN10NS4S D(Is=3.6343E-9 N=1.5946 Rs=11.302E-3 Ikf=.19239 Eg=1 Cjo=156.20E-12 M=.46967 Vj=.55634 Isr=289.64E-12 Bv=430 Tt=39n Tikf=0.01 Iave=10 Vpk=430 mfg=Rohm type=Silicon)
.model RFUH10NS4S D(Is=15.309E-9 N=1.8022 Rs=12.779E-3 Ikf=.44057 Eg=.93 Cjo=150.30E-12 M=.46411 Vj=.51969 Isr=123.04E-12 Bv=430 Tt=31n Tikf=0.01 Iave=10 Vpk=430 mfg=Rohm type=Silicon)
.model RFN20NS4S D(Is=7.7008E-9 N=1.6045 Rs=8.6697E-3 Ikf=.34432 Eg=1 Cjo=268.00E-12 M=.45951 Vj=.51295 Isr=107.76E-12 Bv=430 Tt=43n Tikf=0.01 Iave=20 Vpk=430 mfg=Rohm type=Silicon)
.model RFUH20NS4S D(Is=16.259E-9 N=1.9942 Rs=8.5699E-3 Ikf=.54992 Eg=1.0700 Cjo=266.00E-12 M=.45918 Vj=.51161 Isr=175.51E-12 Bv=430 Tt=34n Tikf=0.01 Iave=20 Vpk=430 mfg=Rohm type=Silicon)
.model RFN10NS6S D(Is=13.436E-9 N=1.7555 Rs=13.156E-3 Ikf=.15702 Eg=1 Cjo=168.00E-12 M=.46459 Vj=.51864 Isr=212.37E-12 Nr=3 Bv=600 Tt=61n Tikf=0.01 Iave=10 Vpk=600 mfg=Rohm type=Silicon)
.model RFUH10NS6S D(Is=17.288E-9 N=2.4086 Rs=20.868E-3 Ikf=.33206 Eg=1.3000 Cjo=158.20E-12 M=.45903 Vj=.54883 Isr=131.51E-12 Nr=3 Bv=600 Tt=28n Tikf=0.01 Trs1=-0.001 Iave=10 Vpk=600 mfg=Rohm type=Silicon)
.model RFN20NS6S D(Is=22.550E-9 N=1.6626 Rs=8.7129E-3 Ikf=.16879 Eg=.93 Cjo=322.00E-12 M=.47017 Vj=.55476 Isr=303.85E-12 Nr=3 Bv=600 Tt=72n Tikf=0.01 Iave=20 Vpk=600 mfg=Rohm type=Silicon)
.model RFUH20NS6S D(Is=21.421E-9 N=1.9253 Rs=19.231E-3 Ikf=.25578 Eg=1.0700 Cjo=315.00E-12 M=.4461 Vj=.51056 Isr=628.68E-12 Bv=600 Tt=30n Tikf=0.01 Iave=20 Vpk=600 mfg=Rohm type=Silicon)
.model RF1501TF3S D(Is=628.31E-12 N=1.3228 Rs=10.517E-3 Ikf=.25333 Eg=1.1000 Cjo=354.00E-12 M=.43343 Vj=.50807 Isr=1.0770E-9 Nr=3.2000 Bv=350 Tt=33.4n Tikf=0.01 Iave=20 Vpk=350 mfg=Rohm type=Silicon)
.model RF505TF6S D(Is=14.418E-9 N=1.8209 Rs=24.737E-3 Ikf=.13898 Eg=1.0200 Cjo=150.00E-12 M=.54835 Vj=.70933 Isr=18.025E-12 Bv=600 Tt=49n Tikf=0.01 Iave=5 Vpk=600 mfg=Rohm type=Silicon)
.model RF1005TF6S D(Is=14.956E-9 N=1.8393 Rs=18.550E-3 Ikf=.19576 Cjo=270.00E-12 M=.47268 Vj=.51459 Isr=534.12E-12 Nr=3 Bv=600 Tt=61n Tikf=0.01 Iave=10 Vpk=600 mfg=Rohm type=Silicon)
.model RFN10TF6S D(Is=13.436E-9 N=1.7555 Rs=13.156E-3 Ikf=.15702 Eg=1 Cjo=168.00E-12 M=.46459 Vj=.51864 Isr=212.37E-12 Nr=3 Bv=600 Tt=61n Tikf=0.01 Iave=10 Vpk=600 mfg=Rohm type=Silicon)
.model RFUH10TF6S D(Is=17.288E-9 N=2.4086 Rs=20.868E-3 Ikf=.33206 Eg=1.3000 Cjo=158.20E-12 M=.45903 Vj=.54883 Isr=131.51E-12 Nr=3 Bv=600 Tt=28n Tikf=0.01 Trs1=-0.001 Iave=10 Vpk=600 mfg=Rohm type=Silicon)
.model RFN20TF6S D(Is=22.550E-9 N=1.6626 Rs=8.7129E-3 Ikf=.16879 Eg=.93 Cjo=322.00E-12 M=.47017 Vj=.55476 Isr=303.85E-12 Nr=3 Bv=600 Tt=72n Tikf=0.01 Iave=20 Vpk=600 mfg=Rohm type=Silicon)
.model RFUH20TF6S D(Is=21.421E-9 N=1.9253 Rs=19.231E-3 Ikf=.25578 Eg=1.0700 Cjo=315.00E-12 M=.4461 Vj=.51056 Isr=628.68E-12 Bv=600 Tt=30n Tikf=0.01 Iave=20 Vpk=600 mfg=Rohm type=Silicon)
.model RFN5TF8S D(Is=25.640E-9 N=2.2001 Rs=35.046E-3 Ikf=.15787 Eg=1.1500 Cjo=141.10E-12 M=.47876 Vj=.63758 Isr=164.31E-12 Nr=3.2000 Bv=800 Tt=44.5n Tikf=0.01 Iave=5 Vpk=800 mfg=Rohm type=Silicon)
.model 1SS400SM D(Is=1.7962E-9 N=1.7555 Rs=.55113 Ikf=72.153E-3 Cjo=1.3304E-12 M=.11174 Vj=4.1020 Isr=3.2239E-9 Nr=4.0000 Bv=90 Tt=11.542E-9 Iave=0.1 Vpk=90 mfg=Rohm type=Silicon)
.model 1SS355VM D(Is=0.3971E-9 N=1.7916 Rs=1.2943 Ikf=9.0759E-3 Cjo=659.70E-15 M=0.1145 Vj=2.3974 Isr=6.1486E-9 Nr=1.91 Bv=90 Tt=4.5591E-9 Iave=0.1 Vpk=90 mfg=Rohm type=Silicon)
.model DAN222WM D(Is=1.2872E-9 N=1.7918 Rs=.90633 Ikf=83.541E-3 Cjo=628.00E-15 M=.12181 Vj=7.4703 Isr=3.4924E-9 Nr=2.3000 Bv=80 Tt=27.411E-9 Iave=0.1 Vpk=80 mfg=Rohm type=Silicon)
.model DAN202UM D(Is=1.0978E-9 N=1.7176 Rs=.32884 Ikf=10.057E-3 Eg=1.09 Cjo=740.00E-15 M=.10237 Vj=.5009 Isr=3.7486E-9 Nr=2.6 Bv=80 Tt=37.000E-9 Tikf=0.005 Iave=0.1 Vpk=80 mfg=Rohm type=Silicon)
.model DAP222WM D(Is=3.8311E-12 N=1.1556 Rs=.16041 Ikf=1.0156E-3 Cjo=2.9921E-12 M=.17376 Vj=.80381 Isr=1.0089E-9 Nr=2.5000 Bv=80 Tt=27.500E-9 Iave=0.1 Vpk=80 mfg=Rohm type=Silicon)
.model DAP202UM D(Is=199.70E-12 N=1.4778 Rs=372.25E-3 Ikf=3.7689E-3 Eg=0.95 Cjo=4.9977E-12 M=0.5422 Vj=0.5005 Isr=631.70E-12 Nr=1.8 Bv=80 Tt=27.500E-9 Tikf=0.015 Iave=0.1 Vpk=80 mfg=Rohm type=Silicon)
.model DAN217UM D(Is=2.6342E-9 N=1.8236 Rs=.76118 Ikf=.10618 Cjo=661.82E-15 M=.11919 Vj=5.5076 Isr=5.7268E-9 Bv=80 Tt=15n Iave=0.1 Vpk=80 mfg=Rohm type=Silicon)
.model EDZV6_2B D(Is=149.54E-18 N=1.0155 Rs=.21260 Ikf=1.2516 Cjo=23.000E-12 M=.37190 Vj=.75178 Isr=0.5007E-12 Nr=4.6500 Bv=6.1950 Ibv=5.0000E-3 Tt=65.000E-9 Nbv=0.2000 Tbv1=0.3500E-3 Nbvl=9.7000 Ibvl=3.7000E-6 Vpk=6.2 mfg=Rohm type=Zener)
.model EDZV6_8B D(Is=1.7609E-16 N=1.0196 Rs=.26014 Ikf=.94002 Cjo=1.9100E-11 M=.36585 Vj=.76843 Isr=0.3906E-12 Nr=3.2000 Bv=6.7900 Ibv=5.0000E-3 Tt=85.000E-9 Nbv=0.1000 Tbv1=0.4600E-3 Nbvl=11.400 Ibvl=100.00E-9 Vpk=6.8 mfg=Rohm type=Zener)
.model EDZV7_5B D(Is=2.6370E-16 N=1.0324 Rs=.23141 Ikf=1.1640 Cjo=2.5200E-11 M=.39896 Vj=.76788 Isr=3.4986E-12 Nr=2.6800 Bv=7.4400 Ibv=5.0000E-3 Tt=65.000E-9 Nbv=0.3000 Tbv1=0.4800E-3 Nbvl=14.000 Ibvl=200.00E-9 Vpk=7.5 mfg=Rohm type=Zener)
.model EDZV8_2B D(Is=2.2428E-16 N=1.0295 Rs=.26107 Ikf=1.2319 Cjo=2.2200E-11 M=.38384 Vj=.75935 Isr=2.7900E-12 Nr=3.3000 Bv=8.1900 Ibv=5.0000E-3 Tt=69.000E-9 Nbv=0.1000 Tbv1=0.5500E-3 Nbvl=14.000 Ibvl=10.000E-9 Vpk=8.2 mfg=Rohm type=Zener)
.model EDZV9_1B D(Is=2.0192E-16 N=1.0271 Rs=.25962 Ikf=1.1336 Cjo=1.9400E-11 M=.37163 Vj=.75692 Isr=1.2130E-12 Nr=2.4700 Bv=9.0400 Ibv=5.0000E-3 Tt=102.00E-9 Nbv=0.2000 Tbv1=0.6000E-3 Nbvl=19.800 Ibvl=2.5000E-10 Vpk=9.1 mfg=Rohm type=Zener)
.model EDZV10B D(Is=2.1786E-16 N=1.0288 Rs=.29371 Ikf=81.809 Cjo=1.7400E-11 M=.37721 Vj=.75462 Isr=6.9376E-13 Nr=2.8000 Bv=9.9500 Ibv=5.0000E-3 Tt=1.2800E-7 Nbv=0.2000 Tbv1=6.3000E-4 Nbvl=18.000 Ibvl=0.1200E-9 Vpk=10 mfg=Rohm type=Zener)
.model EDZV11B D(Is=2.6919E-16 N=1.0329 Rs=.28166 Ikf=1.2119 Cjo=1.5000E-11 M=.35461 Vj=.75858 Isr=6.3129E-13 Nr=2.8400 Bv=11.000 Ibv=1.0000E-3 Tt=163.00E-9 Nbv=0.5500 Tbv1=0.6700E-3 Nbvl=22.500 Ibvl=1.5000E-11 Vpk=11 mfg=Rohm type=Zener)
.model EDZV12B D(Is=3.4990E-16 N=1.0420 Rs=.26313 Ikf=.87303 Cjo=1.3700E-11 M=.35603 Vj=.75124 Isr=5.1535E-13 Nr=2.8200 Bv=11.930 Ibv=1.0000E-3 Tt=1.8500E-7 Nbv=0.4000 Tbv1=0.7300E-3 Nbvl=26.200 Ibvl=1.0000E-11 Vpk=12 mfg=Rohm type=Zener)
.model EDZV13B D(Is=3.3892E-16 N=1.0385 Rs=.24887 Ikf=.82579 Cjo=1.3400E-11 M=.45658 Vj=.75643 Isr=5.154E-13 Nr=2.7000 Bv=13.220 Ibv=1.0000E-3 Tt=1.8500E-7 Nbv=0.8800 Tbv1=0.7400E-3 Nbvl=39.200 Ibvl=5.000E-12 Vpk=13 mfg=Rohm type=Zener)
.model EDZV15B D(Is=2.6563E-16 N=1.0349 Rs=.29514 Ikf=35.137 Cjo=1.4700E-11 M=.36513 Vj=.75709 Isr=6.4100E-13 Nr=2.7200 Bv=14.700 Ibv=1.0000E-3 Tt=1.5100E-7 Nbv=0.8600 Tbv1=0.7600E-3 Nbvl=20.700 Ibvl=1.8000E-10 Vpk=15 mfg=Rohm type=Zener)
.model EDZV16B D(Is=2.9649E-16 N=1.0357 Rs=.21510 Ikf=55.214 Cjo=1.3885E-11 M=.33221 Vj=.53071 Isr=5.2147E-13 Nr=2.6867 Bv=16.150 Ibv=1.0000E-3 Tt=1.3700E-7 Nbv=1.1000 Tbv1=0.7800E-3 Nbvl=71.700 Ibvl=7.0000E-12 Vpk=16 mfg=Rohm type=Zener)
.model EDZV18B D(Is=4.3893E-16 N=1.0456 Rs=.23636 Ikf=1.1133 Cjo=1.2300E-11 M=.35741 Vj=.77627 Isr=4.6335E-13 Nr=2.5000 Bv=17.87 Ibv=1.0000E-3 Tt=1.7100E-7 Nbv=0.4600 Tbv1=0.8210E-3 Nbvl=58.400 Ibvl=3.0000E-11 Vpk=18 mfg=Rohm type=Zener)
.model EDZV20B D(Is=5.4004E-16 N=1.0500 Rs=.24711 Ikf=1.0080 Cjo=1.1200E-11 M=.32891 Vj=.51639 Isr=0.2831E-12 Nr=2.2500 Bv=20.00 Ibv=1.0000E-3 Tt=1.8200E-7 Nbv=0.8000 Tbv1=0.83E-3 Nbvl=58.400 Ibvl=0.3000E-11 Vpk=20 mfg=Rohm type=Zener)
.model EDZV22B D(Is=7.8804E-16 N=1.0605 Rs=.26605 Ikf=.81132 Cjo=1.0100E-11 M=.34994 Vj=.79255 Isr=0.5348E-12 Nr=2.6500 Bv=22.050 Ibv=1.0000E-3 Tt=1.8700E-7 Nbv=1.4000 Tbv1=0.8300E-3 Nbvl=125.00 Ibvl=3.5000E-12 Vpk=22 mfg=Rohm type=Zener)
.model EDZV24B D(Is=1.1267E-15 N=1.0731 Rs=.28474 Ikf=.67038 Cjo=9.2000E-12 M=.34336 Vj=.75563 Isr=2.4424E-13 Nr=2.1800 Bv=24.350 Ibv=1.0000E-3 Tt=2.0500E-7 Nbv=0.8000 Tbv1=0.8500E-3 Nbvl=72.00 Ibvl=6.5000E-12 Vpk=24 mfg=Rohm type=Zener)
.model EDZV27B D(Is=1.2516E-15 N=1.0723 Rs=.24316 Ikf=.52825 Cjo=8.5000E-12 M=.32197 Vj=.76072 Isr=4.5326E-13 Nr=2.3500 Bv=26.89 Ibv=1.0000E-3 Tt=1.8400E-7 Nbv=1.6500 Tbv1=0.8500E-3 Nbvl=165.00 Ibvl=4.8000E-12 Vpk=27 mfg=Rohm type=Zener)
.model EDZV30B D(Is=2.2137E-15 N=1.0929 Rs=.25495 Ikf=.75706 Cjo=8.0000E-12 M=.30884 Vj=.76074 Isr=4.9426E-13 Nr=2.8600 Bv=29.98 Ibv=1.0000E-3 Tt=1.9000E-7 Nbv=2.4000 Tbv1=0.87900E-3 Nbvl=155.00 Ibvl=2.0000E-12 Vpk=30 mfg=Rohm type=Zener)
.model EDZV33B D(Is=4.3739E-15 N=1.1094 Rs=.26228 Ikf=.62832 Cjo=7.6000E-12 M=.325085 Vj=.77316 Isr=6.0323E-13 Nr=3.1000 Bv=33.0 Ibv=1.0000E-3 Tt=1.7000E-7 Nbv=1.8200 Tbv1=0.8400E-3 Nbvl=245.00 Ibvl=1.1000E-12 Vpk=33 mfg=Rohm type=Zener)
.model EDZV36B D(Is=8.4106E-15 N=1.1365 Rs=.26630 Ikf=.47397 Cjo=6.8000E-12 M=.31586 Vj=.80868 Isr=7.8934E-13 Nr=2.6500 Bv=35.96 Ibv=1.0000E-3 Tt=2.0500E-7 Nbv=3.0700 Tbv1=0.8700E-3 Nbvl=225.00 Ibvl=2.2000E-12 Vpk=36 mfg=Rohm type=Zener)
.model UDZV6_2B D(Is=149.54E-18 N=1.0155 Rs=.21260 Ikf=1.2516 Cjo=23.000E-12 M=.37190 Vj=.75178 Isr=0.5007E-12 Nr=4.6500 Bv=6.1950 Ibv=5.0000E-3 Tt=65.000E-9 Nbv=0.2000 Tbv1=0.3500E-3 Nbvl=9.7000 Ibvl=3.7000E-6 Vpk=6.2 mfg=Rohm type=Zener)
.model UDZV6_8B D(Is=1.7609E-16 N=1.0196 Rs=.26014 Ikf=.94002 Cjo=1.9100E-11 M=.36585 Vj=.76843 Isr=0.3906E-12 Nr=3.2000 Bv=6.7900 Ibv=5.0000E-3 Tt=85.000E-9 Nbv=0.1000 Tbv1=0.4600E-3 Nbvl=11.400 Ibvl=100.00E-9 Vpk=6.8 mfg=Rohm type=Zener)
.model UDZV7_5B D(Is=2.6370E-16 N=1.0324 Rs=.23141 Ikf=1.1640 Cjo=2.5200E-11 M=.39896 Vj=.76788 Isr=3.4986E-12 Nr=2.6800 Bv=7.4400 Ibv=5.0000E-3 Tt=65.000E-9 Nbv=0.3000 Tbv1=0.4800E-3 Nbvl=14.000 Ibvl=200.00E-9 Vpk=7.5 mfg=Rohm type=Zener)
.model UDZV8_2B D(Is=2.2428E-16 N=1.0295 Rs=.26107 Ikf=1.2319 Cjo=2.2200E-11 M=.38384 Vj=.75935 Isr=2.7900E-12 Nr=3.3000 Bv=8.1900 Ibv=5.0000E-3 Tt=69.000E-9 Nbv=0.1000 Tbv1=0.5500E-3 Nbvl=14.000 Ibvl=10.000E-9 Vpk=8.2 mfg=Rohm type=Zener)
.model UDZV9_1B D(Is=2.0192E-16 N=1.0271 Rs=.25962 Ikf=1.1336 Cjo=1.9400E-11 M=.37163 Vj=.75692 Isr=1.2130E-12 Nr=2.4700 Bv=9.0400 Ibv=5.0000E-3 Tt=102.00E-9 Nbv=0.2000 Tbv1=0.6000E-3 Nbvl=19.800 Ibvl=2.5000E-10 Vpk=9.1 mfg=Rohm type=Zener)
.model UDZV10B D(Is=2.1786E-16 N=1.0288 Rs=.29371 Ikf=81.809 Cjo=1.7400E-11 M=.37721 Vj=.75462 Isr=6.9376E-13 Nr=2.8000 Bv=9.9500 Ibv=5.0000E-3 Tt=1.2800E-7 Nbv=0.2000 Tbv1=6.3000E-4 Nbvl=18.000 Ibvl=0.1200E-9 Vpk=10 mfg=Rohm type=Zener)
.model UDZV11B D(Is=2.6919E-16 N=1.0329 Rs=.28166 Ikf=1.2119 Cjo=1.5000E-11 M=.35461 Vj=.75858 Isr=6.3129E-13 Nr=2.8400 Bv=11.000 Ibv=1.0000E-3 Tt=163.00E-9 Nbv=0.5500 Tbv1=0.6700E-3 Nbvl=22.500 Ibvl=1.5000E-11 Vpk=11 mfg=Rohm type=Zener)
.model UDZV12B D(Is=3.4990E-16 N=1.0420 Rs=.26313 Ikf=.87303 Cjo=1.3700E-11 M=.35603 Vj=.75124 Isr=5.1535E-13 Nr=2.8200 Bv=11.930 Ibv=1.0000E-3 Tt=1.8500E-7 Nbv=0.4000 Tbv1=0.7300E-3 Nbvl=26.200 Ibvl=1.0000E-11 Vpk=12 mfg=Rohm type=Zener)
.model UDZV13B D(Is=3.3892E-16 N=1.0385 Rs=.24887 Ikf=.82579 Cjo=1.3400E-11 M=.45658 Vj=.75643 Isr=5.154E-13 Nr=2.7000 Bv=13.220 Ibv=1.0000E-3 Tt=1.8500E-7 Nbv=0.8800 Tbv1=0.7400E-3 Nbvl=39.200 Ibvl=5.000E-12 Vpk=13 mfg=Rohm type=Zener)
.model UDZV15B D(Is=2.6563E-16 N=1.0349 Rs=.29514 Ikf=35.137 Cjo=1.4700E-11 M=.36513 Vj=.75709 Isr=6.4100E-13 Nr=2.7200 Bv=14.700 Ibv=1.0000E-3 Tt=1.5100E-7 Nbv=0.8600 Tbv1=0.7600E-3 Nbvl=20.700 Ibvl=1.8000E-10 Vpk=15 mfg=Rohm type=Zener)
.model UDZV16B D(Is=2.9649E-16 N=1.0357 Rs=.21510 Ikf=55.214 Cjo=1.3885E-11 M=.33221 Vj=.53071 Isr=5.2147E-13 Nr=2.6867 Bv=16.150 Ibv=1.0000E-3 Tt=1.3700E-7 Nbv=1.1000 Tbv1=0.7800E-3 Nbvl=71.700 Ibvl=7.0000E-12 Vpk=16 mfg=Rohm type=Zener)
.model UDZV18B D(Is=4.3893E-16 N=1.0456 Rs=.23636 Ikf=1.1133 Cjo=1.2300E-11 M=.35741 Vj=.77627 Isr=4.6335E-13 Nr=2.5000 Bv=17.87 Ibv=1.0000E-3 Tt=1.7100E-7 Nbv=0.4600 Tbv1=0.8210E-3 Nbvl=58.400 Ibvl=3.0000E-11 Vpk=18 mfg=Rohm type=Zener)
.model UDZV20B D(Is=5.4004E-16 N=1.0500 Rs=.24711 Ikf=1.0080 Cjo=1.1200E-11 M=.32891 Vj=.51639 Isr=0.2831E-12 Nr=2.2500 Bv=20.00 Ibv=1.0000E-3 Tt=1.8200E-7 Nbv=0.8000 Tbv1=0.83E-3 Nbvl=58.400 Ibvl=0.3000E-11 Vpk=20 mfg=Rohm type=Zener)
.model UDZV22B D(Is=151.47E-18 N=1.0038 Rs=.55814 Ikf=33.191 Eg=1.15 Cjo=9.9600E-12 M=.33139 Vj=.60838 Isr=963.85E-15 Nr=3.8000 Bv=22.000 Ibv=1.0000E-3 Nbv=1.2000 Tbv1=0.7800E-3 Vpk=22 mfg=Rohm type=Zener)
.model UDZV24B D(Is=1.1267E-15 N=1.0731 Rs=.28474 Ikf=.67038 Cjo=9.2000E-12 M=.34336 Vj=.75563 Isr=2.4424E-13 Nr=2.1800 Bv=24.350 Ibv=1.0000E-3 Tt=2.0500E-7 Nbv=0.8000 Tbv1=0.8500E-3 Nbvl=72.00 Ibvl=6.5000E-12 Vpk=24 mfg=Rohm type=Zener)
.model UDZV27B D(Is=1.2516E-15 N=1.0723 Rs=.24316 Ikf=.52825 Cjo=8.5000E-12 M=.32197 Vj=.76072 Isr=4.5326E-13 Nr=2.3500 Bv=26.89 Ibv=1.0000E-3 Tt=1.8400E-7 Nbv=1.6500 Tbv1=0.8500E-3 Nbvl=165.00 Ibvl=4.8000E-12 Vpk=27 mfg=Rohm type=Zener)
.model UDZV30B D(Is=2.2137E-15 N=1.0929 Rs=.25495 Ikf=.75706 Cjo=8.0000E-12 M=.30884 Vj=.76074 Isr=4.9426E-13 Nr=2.8600 Bv=29.98 Ibv=1.0000E-3 Tt=1.9000E-7 Nbv=2.4000 Tbv1=0.87900E-3 Nbvl=155.00 Ibvl=2.0000E-12 Vpk=30 mfg=Rohm type=Zener)
.model UDZV33B D(Is=4.3739E-15 N=1.1094 Rs=.26228 Ikf=.62832 Cjo=7.6000E-12 M=.325085 Vj=.77316 Isr=6.0323E-13 Nr=3.1000 Bv=33.0 Ibv=1.0000E-3 Tt=1.7000E-7 Nbv=1.8200 Tbv1=0.8400E-3 Nbvl=245.00 Ibvl=1.1000E-12 Vpk=33 mfg=Rohm type=Zener)
.model UDZV36B D(Is=8.4106E-15 N=1.1365 Rs=.26630 Ikf=.47397 Cjo=6.8000E-12 M=.31586 Vj=.80868 Isr=7.8934E-13 Nr=2.6500 Bv=35.96 Ibv=1.0000E-3 Tt=2.0500E-7 Nbv=3.0700 Tbv1=0.8700E-3 Nbvl=225.00 Ibvl=2.2000E-12 Vpk=36 mfg=Rohm type=Zener)
.model RB060MM-30 D(Is=684.81E-9 N=1.0244 Rs=44.953E-3 Ikf=25.757 Xti=2 Eg=.69 Cjo=400.26E-12 M=.53071 Vj=.4532 Isr=386.49E-9 Bv=30 Iave=2 Vpk=30 mfg=Rohm type=Schottky)
.model RB060MM-40 D(Is=6.0287E-7 N=1.0068 Rs=5.2387E-2 Ikf=101.65 Xti=2 Eg=.64 Cjo=3.1470E-10 M=.51289 Vj=.51236 Isr=4.7586E-7 Nr=1.2500 Bv=40.000 Trs1=4.8900E-3 Iave=2 Vpk=40 mfg=Rohm type=Schottky)
.model RB060MM-60 D(Is=464.87E-9 N=1.0077 Rs=58.719E-3 Ikf=.18122 Xti=2 Eg=.69 Cjo=290.25E-12 M=.59592 Vj=.76036 Fc=1.0000E-3 Isr=279.50E-9 Nr=1.1000 Bv=60 Trs1=0.002 Iave=2 Vpk=60 mfg=Rohm type=Schottky)
.model RB068M-40 D(Is=16.708E-9 N=1.0779 Rs=15.272E-3 Ikf=.11125 Xti=2 Eg=.74 Cjo=246.00E-12 M=.48639 Vj=.50286 Isr=1.1258E-9 Nr=1.2000 Bv=40 Iave=2 Vpk=40 mfg=Rohm type=Schottky)
.model RB068M-60 D(Is=6.9603E-9 N=1.0258 Rs=14.447E-3 Ikf=67.536E-3 Xti=2 Eg=.69 Cjo=206.00E-12 M=.50548 Vj=.56077 Isr=2.3017E-9 Nr=1.2500 Bv=60 Iave=2 Vpk=60 mfg=Rohm type=Schottky)
.model RB070MM-30 D(Is=528.86E-9 N=1.0226 Rs=21.177E-3 Ikf=.65301 Xti=2 Eg=.69 Cjo=333.11E-12 M=.54237 Vj=.45894 Isr=470.75E-9 Bv=30 Iave=1.5 Vpk=30 mfg=Rohm type=Schottky)
.model RB160MM-30 D(Is=1.6002E-6 N=1.0362 Rs=42.605E-3 Ikf=.4422 Xti=2 Eg=.69 Cjo=294.15E-12 M=.51409 Vj=.41465 Isr=374.04E-9 Bv=30 Iave=1 Vpk=30 mfg=Rohm type=Schottky)
.model RB160MM-40 D(Is=133.65E-9 N=.95277 Rs=63.592E-3 Ikf=5.1394 Xti=2 Eg=.51 Cjo=280.52E-12 M=.62835 Vj=.71137 Isr=164.28E-9 Nr=1.2000 Bv=40 Iave=1 Vpk=40 mfg=Rohm type=Schottky)
.model RB160MM-60 D(Is=245.71E-9 N=.93892 Rs=56.215E-3 Ikf=46.870E-3 Xti=2 Eg=.65 Cjo=209.47E-12 M=.5166 Vj=.42273 Isr=214.58E-9 Nr=1.7000 Bv=60 Iave=1 Vpk=60 mfg=Rohm type=Schottky)
.model RB160MM-90 D(Is=233.40E-9 N=.92201 Rs=.19364 Ikf=31.868E-3 Xti=2 Eg=.65 Cjo=141.32E-12 M=.51103 Vj=.54163 Isr=121.15E-9 Bv=90 Iave=1 Vpk=90 mfg=Rohm type=Schottky)
.model RB161MM-20 D(Is=47.873E-6 N=1.0674 Rs=12.756E-3 Ikf=.47478 Xti=2 Eg=.55 Cjo=350.27E-12 M=.60349 Vj=.64083 Isr=18.739E-6 Bv=25 Iave=1 Vpk=25 mfg=Rohm type=Schottky)
.model RB162MM-30 D(Is=4.6599E-7 N=1.0163 Rs=5.1019E-2 Ikf=22.312 Xti=2 Eg=.58 Cjo=2.3700E-10 M=.52925 Vj=.5045 Isr=4.7686E-7 Nr=1.3400 Bv=30.000 Trs1=2.7900E-3 Iave=1 Vpk=30 mfg=Rohm type=Schottky)