Version 4
SHEET 1 1308 680
WIRE -752 -336 -768 -336
WIRE -768 -304 -768 -336
WIRE -768 -304 -992 -304
WIRE -640 -304 -768 -304
WIRE -384 -304 -560 -304
WIRE -768 -288 -768 -304
WIRE -768 -192 -768 -208
FLAG -768 -192 0
FLAG -752 -336 x2
SYMBOL current -768 -208 M180
WINDOW 0 15 0 Invisible 2
WINDOW 3 24 0 Invisible 2
SYMATTR InstName I1
SYMATTR Value ""
SYMATTR Value2 AC {u(P)}
SYMBOL voltage -656 -304 M90
WINDOW 0 27 17 VTop 2
WINDOW 3 -32 56 VBottom 2
SYMATTR InstName Vp
SYMATTR Value ""
SYMATTR Value2 AC {u(-P)}
TEXT -536 112 Left 2 ;1/(1-1/(2*(I(Vp)@1*V(x2)@2-V(x2)@1*I(Vp)@2)+V(x2)@1+I(Vp)@2))
TEXT -648 -56 Left 2 ;.step param P list -1 1
TEXT -648 16 Left 2 !.param P=0
TEXT -992 184 Left 2 !.MEAS TRAN PM FIND Mag(1/(1-1/(2*(I(Vp)@1*V(x2)@2-V(x2)@1*I(Vp)@2)+V(x2)@1+I(Vp)@2))) WHEN Ph(1/(1-1/(2*(I(Vp)@1*V(x2)@2-V(x2)@1*I(Vp)@2)+V(x2)@1+I(Vp)@2)))=0
TEXT -648 -224 Left 2 ;Nombrar como "Vp"
TEXT -992 112 Left 2 ;Ganancia de lazo T=-A.B. Graficar:
TEXT -992 224 Left 2 !.MEAS TRAN PM2 FIND Mag(1/(1-1/(2*(I(Vp)@1*V(x2)@2-V(x2)@1*I(Vp)@2)+V(x2)@1+I(Vp)@2))) WHEN Ph(1/(1-1/(2*(I(Vp)@1*V(x2)@2-V(x2)@1*I(Vp)@2)+V(x2)@1+I(Vp)@2)))=0 cross=2
TEXT -968 16 Left 2 ;Para Desactivar ------>
TEXT -968 -56 Left 2 ;Para Activar ------>
TEXT -984 312 Left 2 ;Material de estudio de la cátedra de Electrónica 3\nEn base a las enseñanzas del supremo maestro Robert David Middlebrook
RECTANGLE Normal -384 48 -992 -80 2
